version 3
run General-0-20221214-18:05:06-81734
attr configname General
attr datetime 20221214-18:05:06
attr datetimef 20221214-180506
attr experiment General
attr inifile ./simulations/omnetpp.ini
attr iterationvars "$bnum=int(uniform(2, 5)), $hnum=int(uniform(2, 5)), $xnum=int(uniform(1, 2))"
attr iterationvarsd bnum=int(uniform(2,_5))/hnum=int(uniform(2,_5))/xnum=int(uniform(1,_2))
attr iterationvarsf bnum=int(uniform(2,_5)),hnum=int(uniform(2,_5)),xnum=int(uniform(1,_2))-
attr measurement "$bnum=int(uniform(2, 5)), $hnum=int(uniform(2, 5)), $xnum=int(uniform(1, 2))"
attr network Network
attr processid 81734
attr repetition 0
attr replication #0
attr resultdir results
attr runnumber 0
attr seedset 0
itervar bnum "int(uniform(2, 5))"
itervar hnum "int(uniform(2, 5))"
itervar xnum "int(uniform(1, 2))"
config image-path ../../omnetpp-6.0.1/samples/inet4.4/images
config network Network
config sim-time-limit 300s
config output-scalar-file results/scalars.sca
config output-vector-file results/vectors.vec
config seed-0-mt 1
config *.configurator.dumpAddresses true
config *.configurator.dumpTopology true
config *.configurator.dumpLinks true
config *.configurator.dumpRoutes true
config *.configurator.config "xmldoc(\"config.xml\")"
config *.visualizer.interfaceTableVisualizer.displayInterfaceTables true
config *.visualizer.interfaceTableVisualizer.nodeFilter "\"not (*router*)\""
config *.cableBandwidth 100Mbps
config *.cableLength 20km
config *.cableBandwidth.param-record-as-scalar true
config *.cableLength.param-record-as-scalar true
config *.*.ipv4.arp.typename GlobalArp
config *.*.ipv4.routingTable.netmaskRoutes "\"\""
config *.*router.eth[*].queue.typename DropTailQueue
config *.*router.eth[*].queue.packetCapacity 10
config *.server.numApps 1
config *.server.app[0].typename ServerApp
config *.server.app[0].heartbeatThreshold 15
config *.bunker_number "int(uniform(2, 5))"
config *.host_number "int(uniform(2, 5))"
config *.nonExist_host_number "int(uniform(1, 2))"
config *.bunker_number.param-record-as-scalar true
config *.host_number.param-record-as-scalar true
config *.nonExist_host_number.param-record-as-scalar true
config *.bunkerhost[*].numApps 2
config *.bunkerhost[*].app[*].destAddress "\"server\""
config *.bunkerhost[*].app[0].sendInterval "int(uniform(5s, 10s))"
config *.bunkerhost[*].app[1].sendInterval "int(uniform(6s, 12s))"
config *.bunkerhost[*].app[0].typename HeartBeatApp
config *.bunkerhost[*].app[1].typename ClientApp
config *.bunkerhost[*].app[1].bunker_number "int(uniform(2, 5))"
config *.bunkerhost[*].app[1].host_number "int(uniform(2, 5))"
config *.bunkerhost[*].app[1].nonExist_host_number "int(uniform(1, 2))"

par Network.server.ethg$o[0].channel typename "\"bunker_net_sim.simulations.Network.cable\""
par Network.server.ethg$o[0].channel disabled false
attr mutable ""
par Network.server.ethg$o[0].channel delay 0.0001s
attr mutable ""
attr unit s
par Network.server.ethg$o[0].channel datarate 1e+08bps
attr mutable ""
attr unit bps
par Network.server.ethg$o[0].channel ber 0
attr mutable ""
par Network.server.ethg$o[0].channel per 0
attr mutable ""
par Network.mainrouter.ethg$o[0].channel typename "\"bunker_net_sim.simulations.Network.cable\""
par Network.mainrouter.ethg$o[0].channel disabled false
attr mutable ""
par Network.mainrouter.ethg$o[0].channel delay 0.0001s
attr mutable ""
attr unit s
par Network.mainrouter.ethg$o[0].channel datarate 1e+08bps
attr mutable ""
attr unit bps
par Network.mainrouter.ethg$o[0].channel ber 0
attr mutable ""
par Network.mainrouter.ethg$o[0].channel per 0
attr mutable ""
par Network.bunkerrouter[0].ethg$o[0].channel typename "\"bunker_net_sim.simulations.Network.cable\""
par Network.bunkerrouter[0].ethg$o[0].channel disabled false
attr mutable ""
par Network.bunkerrouter[0].ethg$o[0].channel delay 0.0001s
attr mutable ""
attr unit s
par Network.bunkerrouter[0].ethg$o[0].channel datarate 1e+08bps
attr mutable ""
attr unit bps
par Network.bunkerrouter[0].ethg$o[0].channel ber 0
attr mutable ""
par Network.bunkerrouter[0].ethg$o[0].channel per 0
attr mutable ""
par Network.mainrouter.ethg$o[1].channel typename "\"bunker_net_sim.simulations.Network.cable\""
par Network.mainrouter.ethg$o[1].channel disabled false
attr mutable ""
par Network.mainrouter.ethg$o[1].channel delay 0.0001s
attr mutable ""
attr unit s
par Network.mainrouter.ethg$o[1].channel datarate 1e+08bps
attr mutable ""
attr unit bps
par Network.mainrouter.ethg$o[1].channel ber 0
attr mutable ""
par Network.mainrouter.ethg$o[1].channel per 0
attr mutable ""
par Network.bunkerrouter[1].ethg$o[0].channel typename "\"bunker_net_sim.simulations.Network.cable\""
par Network.bunkerrouter[1].ethg$o[0].channel disabled false
attr mutable ""
par Network.bunkerrouter[1].ethg$o[0].channel delay 0.0001s
attr mutable ""
attr unit s
par Network.bunkerrouter[1].ethg$o[0].channel datarate 1e+08bps
attr mutable ""
attr unit bps
par Network.bunkerrouter[1].ethg$o[0].channel ber 0
attr mutable ""
par Network.bunkerrouter[1].ethg$o[0].channel per 0
attr mutable ""
par Network.mainrouter.ethg$o[2].channel typename "\"bunker_net_sim.simulations.Network.cable\""
par Network.mainrouter.ethg$o[2].channel disabled false
attr mutable ""
par Network.mainrouter.ethg$o[2].channel delay 0.0001s
attr mutable ""
attr unit s
par Network.mainrouter.ethg$o[2].channel datarate 1e+08bps
attr mutable ""
attr unit bps
par Network.mainrouter.ethg$o[2].channel ber 0
attr mutable ""
par Network.mainrouter.ethg$o[2].channel per 0
attr mutable ""
par Network.bunkerrouter[2].ethg$o[0].channel typename "\"bunker_net_sim.simulations.Network.cable\""
par Network.bunkerrouter[2].ethg$o[0].channel disabled false
attr mutable ""
par Network.bunkerrouter[2].ethg$o[0].channel delay 0.0001s
attr mutable ""
attr unit s
par Network.bunkerrouter[2].ethg$o[0].channel datarate 1e+08bps
attr mutable ""
attr unit bps
par Network.bunkerrouter[2].ethg$o[0].channel ber 0
attr mutable ""
par Network.bunkerrouter[2].ethg$o[0].channel per 0
attr mutable ""
par Network.mainrouter.ethg$o[3].channel typename "\"bunker_net_sim.simulations.Network.cable\""
par Network.mainrouter.ethg$o[3].channel disabled false
attr mutable ""
par Network.mainrouter.ethg$o[3].channel delay 0.0001s
attr mutable ""
attr unit s
par Network.mainrouter.ethg$o[3].channel datarate 1e+08bps
attr mutable ""
attr unit bps
par Network.mainrouter.ethg$o[3].channel ber 0
attr mutable ""
par Network.mainrouter.ethg$o[3].channel per 0
attr mutable ""
par Network.bunkerrouter[0].ethg$o[1].channel typename "\"bunker_net_sim.simulations.Network.cable\""
par Network.bunkerrouter[0].ethg$o[1].channel disabled false
attr mutable ""
par Network.bunkerrouter[0].ethg$o[1].channel delay 0.0001s
attr mutable ""
attr unit s
par Network.bunkerrouter[0].ethg$o[1].channel datarate 1e+08bps
attr mutable ""
attr unit bps
par Network.bunkerrouter[0].ethg$o[1].channel ber 0
attr mutable ""
par Network.bunkerrouter[0].ethg$o[1].channel per 0
attr mutable ""
par Network.bunkerhost[0].ethg$o[0].channel typename "\"bunker_net_sim.simulations.Network.cable\""
par Network.bunkerhost[0].ethg$o[0].channel disabled false
attr mutable ""
par Network.bunkerhost[0].ethg$o[0].channel delay 0.0001s
attr mutable ""
attr unit s
par Network.bunkerhost[0].ethg$o[0].channel datarate 1e+08bps
attr mutable ""
attr unit bps
par Network.bunkerhost[0].ethg$o[0].channel ber 0
attr mutable ""
par Network.bunkerhost[0].ethg$o[0].channel per 0
attr mutable ""
par Network.bunkerrouter[0].ethg$o[2].channel typename "\"bunker_net_sim.simulations.Network.cable\""
par Network.bunkerrouter[0].ethg$o[2].channel disabled false
attr mutable ""
par Network.bunkerrouter[0].ethg$o[2].channel delay 0.0001s
attr mutable ""
attr unit s
par Network.bunkerrouter[0].ethg$o[2].channel datarate 1e+08bps
attr mutable ""
attr unit bps
par Network.bunkerrouter[0].ethg$o[2].channel ber 0
attr mutable ""
par Network.bunkerrouter[0].ethg$o[2].channel per 0
attr mutable ""
par Network.bunkerhost[1].ethg$o[0].channel typename "\"bunker_net_sim.simulations.Network.cable\""
par Network.bunkerhost[1].ethg$o[0].channel disabled false
attr mutable ""
par Network.bunkerhost[1].ethg$o[0].channel delay 0.0001s
attr mutable ""
attr unit s
par Network.bunkerhost[1].ethg$o[0].channel datarate 1e+08bps
attr mutable ""
attr unit bps
par Network.bunkerhost[1].ethg$o[0].channel ber 0
attr mutable ""
par Network.bunkerhost[1].ethg$o[0].channel per 0
attr mutable ""
par Network.bunkerrouter[0].ethg$o[3].channel typename "\"bunker_net_sim.simulations.Network.cable\""
par Network.bunkerrouter[0].ethg$o[3].channel disabled false
attr mutable ""
par Network.bunkerrouter[0].ethg$o[3].channel delay 0.0001s
attr mutable ""
attr unit s
par Network.bunkerrouter[0].ethg$o[3].channel datarate 1e+08bps
attr mutable ""
attr unit bps
par Network.bunkerrouter[0].ethg$o[3].channel ber 0
attr mutable ""
par Network.bunkerrouter[0].ethg$o[3].channel per 0
attr mutable ""
par Network.bunkerhost[2].ethg$o[0].channel typename "\"bunker_net_sim.simulations.Network.cable\""
par Network.bunkerhost[2].ethg$o[0].channel disabled false
attr mutable ""
par Network.bunkerhost[2].ethg$o[0].channel delay 0.0001s
attr mutable ""
attr unit s
par Network.bunkerhost[2].ethg$o[0].channel datarate 1e+08bps
attr mutable ""
attr unit bps
par Network.bunkerhost[2].ethg$o[0].channel ber 0
attr mutable ""
par Network.bunkerhost[2].ethg$o[0].channel per 0
attr mutable ""
par Network.bunkerrouter[0].ethg$o[4].channel typename "\"bunker_net_sim.simulations.Network.cable\""
par Network.bunkerrouter[0].ethg$o[4].channel disabled false
attr mutable ""
par Network.bunkerrouter[0].ethg$o[4].channel delay 0.0001s
attr mutable ""
attr unit s
par Network.bunkerrouter[0].ethg$o[4].channel datarate 1e+08bps
attr mutable ""
attr unit bps
par Network.bunkerrouter[0].ethg$o[4].channel ber 0
attr mutable ""
par Network.bunkerrouter[0].ethg$o[4].channel per 0
attr mutable ""
par Network.bunkerhost[3].ethg$o[0].channel typename "\"bunker_net_sim.simulations.Network.cable\""
par Network.bunkerhost[3].ethg$o[0].channel disabled false
attr mutable ""
par Network.bunkerhost[3].ethg$o[0].channel delay 0.0001s
attr mutable ""
attr unit s
par Network.bunkerhost[3].ethg$o[0].channel datarate 1e+08bps
attr mutable ""
attr unit bps
par Network.bunkerhost[3].ethg$o[0].channel ber 0
attr mutable ""
par Network.bunkerhost[3].ethg$o[0].channel per 0
attr mutable ""
par Network.bunkerrouter[1].ethg$o[1].channel typename "\"bunker_net_sim.simulations.Network.cable\""
par Network.bunkerrouter[1].ethg$o[1].channel disabled false
attr mutable ""
par Network.bunkerrouter[1].ethg$o[1].channel delay 0.0001s
attr mutable ""
attr unit s
par Network.bunkerrouter[1].ethg$o[1].channel datarate 1e+08bps
attr mutable ""
attr unit bps
par Network.bunkerrouter[1].ethg$o[1].channel ber 0
attr mutable ""
par Network.bunkerrouter[1].ethg$o[1].channel per 0
attr mutable ""
par Network.bunkerhost[4].ethg$o[0].channel typename "\"bunker_net_sim.simulations.Network.cable\""
par Network.bunkerhost[4].ethg$o[0].channel disabled false
attr mutable ""
par Network.bunkerhost[4].ethg$o[0].channel delay 0.0001s
attr mutable ""
attr unit s
par Network.bunkerhost[4].ethg$o[0].channel datarate 1e+08bps
attr mutable ""
attr unit bps
par Network.bunkerhost[4].ethg$o[0].channel ber 0
attr mutable ""
par Network.bunkerhost[4].ethg$o[0].channel per 0
attr mutable ""
par Network.bunkerrouter[1].ethg$o[2].channel typename "\"bunker_net_sim.simulations.Network.cable\""
par Network.bunkerrouter[1].ethg$o[2].channel disabled false
attr mutable ""
par Network.bunkerrouter[1].ethg$o[2].channel delay 0.0001s
attr mutable ""
attr unit s
par Network.bunkerrouter[1].ethg$o[2].channel datarate 1e+08bps
attr mutable ""
attr unit bps
par Network.bunkerrouter[1].ethg$o[2].channel ber 0
attr mutable ""
par Network.bunkerrouter[1].ethg$o[2].channel per 0
attr mutable ""
par Network.bunkerhost[5].ethg$o[0].channel typename "\"bunker_net_sim.simulations.Network.cable\""
par Network.bunkerhost[5].ethg$o[0].channel disabled false
attr mutable ""
par Network.bunkerhost[5].ethg$o[0].channel delay 0.0001s
attr mutable ""
attr unit s
par Network.bunkerhost[5].ethg$o[0].channel datarate 1e+08bps
attr mutable ""
attr unit bps
par Network.bunkerhost[5].ethg$o[0].channel ber 0
attr mutable ""
par Network.bunkerhost[5].ethg$o[0].channel per 0
attr mutable ""
par Network.bunkerrouter[1].ethg$o[3].channel typename "\"bunker_net_sim.simulations.Network.cable\""
par Network.bunkerrouter[1].ethg$o[3].channel disabled false
attr mutable ""
par Network.bunkerrouter[1].ethg$o[3].channel delay 0.0001s
attr mutable ""
attr unit s
par Network.bunkerrouter[1].ethg$o[3].channel datarate 1e+08bps
attr mutable ""
attr unit bps
par Network.bunkerrouter[1].ethg$o[3].channel ber 0
attr mutable ""
par Network.bunkerrouter[1].ethg$o[3].channel per 0
attr mutable ""
par Network.bunkerhost[6].ethg$o[0].channel typename "\"bunker_net_sim.simulations.Network.cable\""
par Network.bunkerhost[6].ethg$o[0].channel disabled false
attr mutable ""
par Network.bunkerhost[6].ethg$o[0].channel delay 0.0001s
attr mutable ""
attr unit s
par Network.bunkerhost[6].ethg$o[0].channel datarate 1e+08bps
attr mutable ""
attr unit bps
par Network.bunkerhost[6].ethg$o[0].channel ber 0
attr mutable ""
par Network.bunkerhost[6].ethg$o[0].channel per 0
attr mutable ""
par Network.bunkerrouter[1].ethg$o[4].channel typename "\"bunker_net_sim.simulations.Network.cable\""
par Network.bunkerrouter[1].ethg$o[4].channel disabled false
attr mutable ""
par Network.bunkerrouter[1].ethg$o[4].channel delay 0.0001s
attr mutable ""
attr unit s
par Network.bunkerrouter[1].ethg$o[4].channel datarate 1e+08bps
attr mutable ""
attr unit bps
par Network.bunkerrouter[1].ethg$o[4].channel ber 0
attr mutable ""
par Network.bunkerrouter[1].ethg$o[4].channel per 0
attr mutable ""
par Network.bunkerhost[7].ethg$o[0].channel typename "\"bunker_net_sim.simulations.Network.cable\""
par Network.bunkerhost[7].ethg$o[0].channel disabled false
attr mutable ""
par Network.bunkerhost[7].ethg$o[0].channel delay 0.0001s
attr mutable ""
attr unit s
par Network.bunkerhost[7].ethg$o[0].channel datarate 1e+08bps
attr mutable ""
attr unit bps
par Network.bunkerhost[7].ethg$o[0].channel ber 0
attr mutable ""
par Network.bunkerhost[7].ethg$o[0].channel per 0
attr mutable ""
par Network.bunkerrouter[2].ethg$o[1].channel typename "\"bunker_net_sim.simulations.Network.cable\""
par Network.bunkerrouter[2].ethg$o[1].channel disabled false
attr mutable ""
par Network.bunkerrouter[2].ethg$o[1].channel delay 0.0001s
attr mutable ""
attr unit s
par Network.bunkerrouter[2].ethg$o[1].channel datarate 1e+08bps
attr mutable ""
attr unit bps
par Network.bunkerrouter[2].ethg$o[1].channel ber 0
attr mutable ""
par Network.bunkerrouter[2].ethg$o[1].channel per 0
attr mutable ""
par Network.bunkerhost[8].ethg$o[0].channel typename "\"bunker_net_sim.simulations.Network.cable\""
par Network.bunkerhost[8].ethg$o[0].channel disabled false
attr mutable ""
par Network.bunkerhost[8].ethg$o[0].channel delay 0.0001s
attr mutable ""
attr unit s
par Network.bunkerhost[8].ethg$o[0].channel datarate 1e+08bps
attr mutable ""
attr unit bps
par Network.bunkerhost[8].ethg$o[0].channel ber 0
attr mutable ""
par Network.bunkerhost[8].ethg$o[0].channel per 0
attr mutable ""
par Network.bunkerrouter[2].ethg$o[2].channel typename "\"bunker_net_sim.simulations.Network.cable\""
par Network.bunkerrouter[2].ethg$o[2].channel disabled false
attr mutable ""
par Network.bunkerrouter[2].ethg$o[2].channel delay 0.0001s
attr mutable ""
attr unit s
par Network.bunkerrouter[2].ethg$o[2].channel datarate 1e+08bps
attr mutable ""
attr unit bps
par Network.bunkerrouter[2].ethg$o[2].channel ber 0
attr mutable ""
par Network.bunkerrouter[2].ethg$o[2].channel per 0
attr mutable ""
par Network.bunkerhost[9].ethg$o[0].channel typename "\"bunker_net_sim.simulations.Network.cable\""
par Network.bunkerhost[9].ethg$o[0].channel disabled false
attr mutable ""
par Network.bunkerhost[9].ethg$o[0].channel delay 0.0001s
attr mutable ""
attr unit s
par Network.bunkerhost[9].ethg$o[0].channel datarate 1e+08bps
attr mutable ""
attr unit bps
par Network.bunkerhost[9].ethg$o[0].channel ber 0
attr mutable ""
par Network.bunkerhost[9].ethg$o[0].channel per 0
attr mutable ""
par Network.bunkerrouter[2].ethg$o[3].channel typename "\"bunker_net_sim.simulations.Network.cable\""
par Network.bunkerrouter[2].ethg$o[3].channel disabled false
attr mutable ""
par Network.bunkerrouter[2].ethg$o[3].channel delay 0.0001s
attr mutable ""
attr unit s
par Network.bunkerrouter[2].ethg$o[3].channel datarate 1e+08bps
attr mutable ""
attr unit bps
par Network.bunkerrouter[2].ethg$o[3].channel ber 0
attr mutable ""
par Network.bunkerrouter[2].ethg$o[3].channel per 0
attr mutable ""
par Network.bunkerhost[10].ethg$o[0].channel typename "\"bunker_net_sim.simulations.Network.cable\""
par Network.bunkerhost[10].ethg$o[0].channel disabled false
attr mutable ""
par Network.bunkerhost[10].ethg$o[0].channel delay 0.0001s
attr mutable ""
attr unit s
par Network.bunkerhost[10].ethg$o[0].channel datarate 1e+08bps
attr mutable ""
attr unit bps
par Network.bunkerhost[10].ethg$o[0].channel ber 0
attr mutable ""
par Network.bunkerhost[10].ethg$o[0].channel per 0
attr mutable ""
par Network.bunkerrouter[2].ethg$o[4].channel typename "\"bunker_net_sim.simulations.Network.cable\""
par Network.bunkerrouter[2].ethg$o[4].channel disabled false
attr mutable ""
par Network.bunkerrouter[2].ethg$o[4].channel delay 0.0001s
attr mutable ""
attr unit s
par Network.bunkerrouter[2].ethg$o[4].channel datarate 1e+08bps
attr mutable ""
attr unit bps
par Network.bunkerrouter[2].ethg$o[4].channel ber 0
attr mutable ""
par Network.bunkerrouter[2].ethg$o[4].channel per 0
attr mutable ""
par Network.bunkerhost[11].ethg$o[0].channel typename "\"bunker_net_sim.simulations.Network.cable\""
par Network.bunkerhost[11].ethg$o[0].channel disabled false
attr mutable ""
par Network.bunkerhost[11].ethg$o[0].channel delay 0.0001s
attr mutable ""
attr unit s
par Network.bunkerhost[11].ethg$o[0].channel datarate 1e+08bps
attr mutable ""
attr unit bps
par Network.bunkerhost[11].ethg$o[0].channel ber 0
attr mutable ""
par Network.bunkerhost[11].ethg$o[0].channel per 0
attr mutable ""
par Network.configurator typename "\"inet.networklayer.configurator.ipv4.Ipv4NetworkConfigurator\""
par Network.configurator minLinkWeight 0.001
par Network.configurator configureIsolatedNetworksSeparatly false
par Network.configurator config "<config>...</config> at /Users/ztan/github-repos/bunker-net-sim/simulations//config.xml:1"
par Network.configurator assignAddresses true
par Network.configurator assignUniqueAddresses true
par Network.configurator assignDisjunctSubnetAddresses true
par Network.configurator addStaticRoutes true
par Network.configurator addDefaultRoutes true
par Network.configurator addSubnetRoutes true
par Network.configurator addDirectRoutes true
par Network.configurator optimizeRoutes true
par Network.configurator dumpTopology true
par Network.configurator dumpLinks true
par Network.configurator dumpAddresses true
par Network.configurator dumpRoutes true
par Network.configurator dumpConfig "\"\""
par Network.visualizer.sceneVisualizer typename "\"inet.visualizer.canvas.scene.SceneCanvasVisualizer\""
par Network.visualizer.sceneVisualizer visualizationTargetModule "\"^.^\""
par Network.visualizer.sceneVisualizer visualizationSubjectModule "\"^.^\""
par Network.visualizer.sceneVisualizer tags "\"\""
par Network.visualizer.sceneVisualizer physicalEnvironmentModule "\"physicalEnvironment\""
par Network.visualizer.sceneVisualizer networkNodeVisualizerModule "\"^.networkNodeVisualizer\""
par Network.visualizer.sceneVisualizer axisLength "nan m"
attr mutable ""
attr unit m
par Network.visualizer.sceneVisualizer animationSpeed 0
par Network.visualizer.sceneVisualizer sceneMinX "nan m"
attr unit m
par Network.visualizer.sceneVisualizer sceneMinY "nan m"
attr unit m
par Network.visualizer.sceneVisualizer sceneMinZ "nan m"
attr unit m
par Network.visualizer.sceneVisualizer sceneMaxX "nan m"
attr unit m
par Network.visualizer.sceneVisualizer sceneMaxY "nan m"
attr unit m
par Network.visualizer.sceneVisualizer sceneMaxZ "nan m"
attr unit m
par Network.visualizer.sceneVisualizer zIndex 0
par Network.visualizer.sceneVisualizer viewAngle "\"x right y down z out\""
attr mutable ""
par Network.visualizer.sceneVisualizer viewScale "\"1 1\""
attr mutable ""
par Network.visualizer.sceneVisualizer viewTranslation "\"0 0\""
attr mutable ""
par Network.visualizer.sceneVisualizer descriptionFigure "\"\""
par Network.visualizer.physicalEnvironmentVisualizer typename "\"inet.visualizer.canvas.environment.PhysicalEnvironmentCanvasVisualizer\""
par Network.visualizer.physicalEnvironmentVisualizer visualizationTargetModule "\"^.^\""
par Network.visualizer.physicalEnvironmentVisualizer visualizationSubjectModule "\"^.^\""
par Network.visualizer.physicalEnvironmentVisualizer tags "\"\""
par Network.visualizer.physicalEnvironmentVisualizer physicalEnvironmentModule "\"physicalEnvironment\""
par Network.visualizer.physicalEnvironmentVisualizer displayObjects true
par Network.visualizer.physicalEnvironmentVisualizer zIndex 0
par Network.visualizer.networkNodeVisualizer typename "\"inet.visualizer.canvas.scene.NetworkNodeCanvasVisualizer\""
par Network.visualizer.networkNodeVisualizer visualizationTargetModule "\"^.^\""
par Network.visualizer.networkNodeVisualizer visualizationSubjectModule "\"^.^\""
par Network.visualizer.networkNodeVisualizer tags "\"\""
par Network.visualizer.networkNodeVisualizer nodeFilter "\"*\""
attr mutable ""
par Network.visualizer.networkNodeVisualizer annotationSpacing 4
par Network.visualizer.networkNodeVisualizer placementPenalty 10
par Network.visualizer.networkNodeVisualizer zIndex 0
par Network.visualizer.networkConnectionVisualizer typename "\"inet.visualizer.canvas.scene.NetworkConnectionCanvasVisualizer\""
par Network.visualizer.networkConnectionVisualizer visualizationTargetModule "\"^.^\""
par Network.visualizer.networkConnectionVisualizer visualizationSubjectModule "\"^.^\""
par Network.visualizer.networkConnectionVisualizer tags "\"\""
par Network.visualizer.networkConnectionVisualizer displayNetworkConnections true
par Network.visualizer.networkConnectionVisualizer nodeFilter "\"\""
attr mutable ""
par Network.visualizer.networkConnectionVisualizer lineColor "\"black\""
par Network.visualizer.networkConnectionVisualizer lineStyle "\"solid\""
par Network.visualizer.networkConnectionVisualizer lineWidth 1
par Network.visualizer.networkConnectionVisualizer zIndex 0
par Network.visualizer.mobilityVisualizer typename "\"inet.visualizer.canvas.mobility.MobilityCanvasVisualizer\""
par Network.visualizer.mobilityVisualizer visualizationTargetModule "\"^.^\""
par Network.visualizer.mobilityVisualizer visualizationSubjectModule "\"^.^\""
par Network.visualizer.mobilityVisualizer tags "\"\""
par Network.visualizer.mobilityVisualizer networkNodeVisualizerModule "\"^.networkNodeVisualizer\""
par Network.visualizer.mobilityVisualizer displayMobility true
par Network.visualizer.mobilityVisualizer animationSpeed 0
par Network.visualizer.mobilityVisualizer moduleFilter "\"**.mobility\""
attr mutable ""
par Network.visualizer.mobilityVisualizer displayPositions false
par Network.visualizer.mobilityVisualizer positionCircleRadius 4
par Network.visualizer.mobilityVisualizer positionCircleLineWidth 1
par Network.visualizer.mobilityVisualizer positionCircleLineColor "\"dark\""
attr enum light,dark
par Network.visualizer.mobilityVisualizer positionCircleFillColor "\"dark\""
attr enum light,dark
par Network.visualizer.mobilityVisualizer displayOrientations false
par Network.visualizer.mobilityVisualizer orientationPieRadius 32
par Network.visualizer.mobilityVisualizer orientationPieSize 0.2
par Network.visualizer.mobilityVisualizer orientationPieOpacity 0.25
par Network.visualizer.mobilityVisualizer orientationLineColor "\"black\""
par Network.visualizer.mobilityVisualizer orientationLineStyle "\"solid\""
par Network.visualizer.mobilityVisualizer orientationLineWidth 1
par Network.visualizer.mobilityVisualizer orientationFillColor "\"blue\""
par Network.visualizer.mobilityVisualizer displayVelocities false
par Network.visualizer.mobilityVisualizer velocityArrowScale 1
par Network.visualizer.mobilityVisualizer velocityLineColor "\"black\""
par Network.visualizer.mobilityVisualizer velocityLineStyle "\"solid\""
par Network.visualizer.mobilityVisualizer velocityLineWidth 1
par Network.visualizer.mobilityVisualizer displayMovementTrails false
par Network.visualizer.mobilityVisualizer movementTrailLineColor "\"dark\""
attr enum light,dark
par Network.visualizer.mobilityVisualizer movementTrailLineStyle "\"solid\""
par Network.visualizer.mobilityVisualizer movementTrailLineWidth 1
par Network.visualizer.mobilityVisualizer trailLength 100
par Network.visualizer.mobilityVisualizer zIndex 0
par Network.visualizer.statisticVisualizer typename "\"inet.visualizer.canvas.common.StatisticCanvasVisualizer\""
par Network.visualizer.statisticVisualizer visualizationTargetModule "\"^.^\""
par Network.visualizer.statisticVisualizer visualizationSubjectModule "\"^.^\""
par Network.visualizer.statisticVisualizer tags "\"\""
par Network.visualizer.statisticVisualizer networkNodeVisualizerModule "\"^.networkNodeVisualizer\""
par Network.visualizer.statisticVisualizer displayStatistics true
par Network.visualizer.statisticVisualizer signalName "\"\""
par Network.visualizer.statisticVisualizer statisticName "\"\""
par Network.visualizer.statisticVisualizer statisticUnit "\"\""
par Network.visualizer.statisticVisualizer statisticExpression "\"\""
par Network.visualizer.statisticVisualizer sourceFilter "\"**\""
attr mutable ""
par Network.visualizer.statisticVisualizer format "\"%n: %v %u\""
attr mutable ""
par Network.visualizer.statisticVisualizer unit "\"\""
par Network.visualizer.statisticVisualizer font "\"<default>\""
par Network.visualizer.statisticVisualizer textColor "\"black\""
par Network.visualizer.statisticVisualizer backgroundColor "\"white\""
par Network.visualizer.statisticVisualizer opacity 1
par Network.visualizer.statisticVisualizer placementHint "\"top\""
par Network.visualizer.statisticVisualizer placementPriority 0
par Network.visualizer.statisticVisualizer zIndex 10
par Network.visualizer.statisticVisualizer propertyName "\"\""
par Network.visualizer.statisticVisualizer propertyIndex "\"\""
par Network.visualizer.infoVisualizer typename "\"inet.visualizer.canvas.common.InfoCanvasVisualizer\""
par Network.visualizer.infoVisualizer visualizationTargetModule "\"^.^\""
par Network.visualizer.infoVisualizer visualizationSubjectModule "\"^.^\""
par Network.visualizer.infoVisualizer tags "\"\""
par Network.visualizer.infoVisualizer networkNodeVisualizerModule "\"^.networkNodeVisualizer\""
par Network.visualizer.infoVisualizer displayInfos true
par Network.visualizer.infoVisualizer modules "\"\""
attr mutable ""
par Network.visualizer.infoVisualizer format "\"%t\""
attr mutable ""
par Network.visualizer.infoVisualizer font "\"<default>\""
par Network.visualizer.infoVisualizer textColor "\"black\""
par Network.visualizer.infoVisualizer backgroundColor "\"white\""
par Network.visualizer.infoVisualizer opacity 1
par Network.visualizer.infoVisualizer placementHint "\"top\""
par Network.visualizer.infoVisualizer placementPriority 0
par Network.visualizer.infoVisualizer zIndex 10
par Network.visualizer.energyStorageVisualizer typename "\"inet.visualizer.canvas.power.EnergyStorageCanvasVisualizer\""
par Network.visualizer.energyStorageVisualizer visualizationTargetModule "\"^.^\""
par Network.visualizer.energyStorageVisualizer visualizationSubjectModule "\"^.^\""
par Network.visualizer.energyStorageVisualizer tags "\"\""
par Network.visualizer.energyStorageVisualizer networkNodeVisualizerModule "\"^.networkNodeVisualizer\""
par Network.visualizer.energyStorageVisualizer displayEnergyStorages false
par Network.visualizer.energyStorageVisualizer energyStorageFilter "\"**\""
par Network.visualizer.energyStorageVisualizer color "\"green\""
par Network.visualizer.energyStorageVisualizer width 8
par Network.visualizer.energyStorageVisualizer height 24
par Network.visualizer.energyStorageVisualizer spacing 2
par Network.visualizer.energyStorageVisualizer placementHint "\"right\""
par Network.visualizer.energyStorageVisualizer placementPriority 0
par Network.visualizer.energyStorageVisualizer zIndex 10
par Network.visualizer.mediumVisualizer typename "\"inet.visualizer.canvas.physicallayer.MediumCanvasVisualizer\""
par Network.visualizer.mediumVisualizer visualizationTargetModule "\"^.^\""
par Network.visualizer.mediumVisualizer visualizationSubjectModule "\"^.^\""
par Network.visualizer.mediumVisualizer tags "\"\""
par Network.visualizer.mediumVisualizer mediumModule "\"radioMedium\""
par Network.visualizer.mediumVisualizer networkNodeVisualizerModule "\"^.networkNodeVisualizer\""
par Network.visualizer.mediumVisualizer nodeFilter "\"*\""
attr mutable ""
par Network.visualizer.mediumVisualizer interfaceFilter "\"*\""
attr mutable ""
par Network.visualizer.mediumVisualizer packetFilter "(omnetpp::cValueHolder)holder: \"*\""
attr mutable ""
par Network.visualizer.mediumVisualizer displaySignals false
par Network.visualizer.mediumVisualizer signalColor "\"dark\""
attr enum light,dark
par Network.visualizer.mediumVisualizer signalPropagationAnimationSpeed "nan "
attr mutable ""
par Network.visualizer.mediumVisualizer signalPropagationAnimationTime 1s
attr unit s
par Network.visualizer.mediumVisualizer signalPropagationAdditionalTime 0s
attr unit s
par Network.visualizer.mediumVisualizer signalTransmissionAnimationSpeed "nan "
attr mutable ""
par Network.visualizer.mediumVisualizer signalTransmissionAnimationTime 1s
attr unit s
par Network.visualizer.mediumVisualizer signalAnimationSpeedChangeTimeMode "\"realTime\""
attr enum realTime,animationTime,simulationTime
par Network.visualizer.mediumVisualizer signalAnimationSpeedChangeTime 1s
attr unit s
par Network.visualizer.mediumVisualizer displaySignalDepartures false
par Network.visualizer.mediumVisualizer signalDepartureImage "\"misc/signal_departure.png\""
par Network.visualizer.mediumVisualizer signalDeparturePlacementHint "\"topCenter\""
par Network.visualizer.mediumVisualizer signalDeparturePlacementPriority 1
par Network.visualizer.mediumVisualizer displaySignalArrivals false
par Network.visualizer.mediumVisualizer signalArrivalImage "\"misc/signal_arrival.png\""
par Network.visualizer.mediumVisualizer signalArrivalPlacementHint "\"topCenter\""
par Network.visualizer.mediumVisualizer signalArrivalPlacementPriority -1
par Network.visualizer.mediumVisualizer displayCommunicationRanges false
par Network.visualizer.mediumVisualizer communicationRangeLineColor "\"blue\""
par Network.visualizer.mediumVisualizer communicationRangeLineStyle "\"solid\""
par Network.visualizer.mediumVisualizer communicationRangeLineWidth 1
par Network.visualizer.mediumVisualizer displayInterferenceRanges false
par Network.visualizer.mediumVisualizer interferenceRangeLineColor "\"gray\""
par Network.visualizer.mediumVisualizer interferenceRangeLineStyle "\"solid\""
par Network.visualizer.mediumVisualizer interferenceRangeLineWidth 1
par Network.visualizer.mediumVisualizer autoPowerAxis true
par Network.visualizer.mediumVisualizer signalMinPower "inf dBmW"
attr unit dBmW
par Network.visualizer.mediumVisualizer signalMaxPower 0dBmW
attr unit dBmW
par Network.visualizer.mediumVisualizer signalMinPowerDensity "inf dBmWpMHz"
attr unit dBmWpMHz
par Network.visualizer.mediumVisualizer signalMaxPowerDensity "-inf dBmWpMHz"
attr unit dBmWpMHz
par Network.visualizer.mediumVisualizer autoTimeAxis true
par Network.visualizer.mediumVisualizer signalMinTime 0s
attr unit s
par Network.visualizer.mediumVisualizer signalMaxTime 0s
attr unit s
par Network.visualizer.mediumVisualizer autoFrequencyAxis true
par Network.visualizer.mediumVisualizer signalMinFrequency "inf Hz"
attr unit Hz
par Network.visualizer.mediumVisualizer signalMaxFrequency "-inf Hz"
attr unit Hz
par Network.visualizer.mediumVisualizer displayMainPowerDensityMap false
par Network.visualizer.mediumVisualizer mainPowerDensityMapPixmapDensity 1
par Network.visualizer.mediumVisualizer mainPowerDensityMapMinX 0
par Network.visualizer.mediumVisualizer mainPowerDensityMapMaxX "nan "
par Network.visualizer.mediumVisualizer mainPowerDensityMapMinY 0
par Network.visualizer.mediumVisualizer mainPowerDensityMapMaxY "nan "
par Network.visualizer.mediumVisualizer mainPowerDensityMapZ 0
par Network.visualizer.mediumVisualizer mainPowerDensityMapFigureXTickCount 3
par Network.visualizer.mediumVisualizer mainPowerDensityMapFigureYTickCount 3
par Network.visualizer.mediumVisualizer displayPowerDensityMaps false
par Network.visualizer.mediumVisualizer powerDensityMapMode "\"auto\""
attr enum total,signal,auto
par Network.visualizer.mediumVisualizer powerDensityMapPixelMode "\"mean\""
attr enum sample,partition,mean
par Network.visualizer.mediumVisualizer powerDensityMapApproximationSize 10
par Network.visualizer.mediumVisualizer powerDensityMapCenterFrequency "nan Hz"
attr mutable ""
attr unit Hz
par Network.visualizer.mediumVisualizer powerDensityMapBandwidth 0Hz
attr mutable ""
attr unit Hz
par Network.visualizer.mediumVisualizer powerDensityMapFigureWidth 200
par Network.visualizer.mediumVisualizer powerDensityMapFigureHeight 120
par Network.visualizer.mediumVisualizer powerDensityMapPixmapWidth 200
par Network.visualizer.mediumVisualizer powerDensityMapPixmapHeight 120
par Network.visualizer.mediumVisualizer powerDensityMapZ 0
par Network.visualizer.mediumVisualizer powerDensityMapFigureXTickCount 3
par Network.visualizer.mediumVisualizer powerDensityMapFigureYTickCount 3
par Network.visualizer.mediumVisualizer displaySpectrums false
par Network.visualizer.mediumVisualizer spectrumMode "\"auto\""
attr enum total,signal,auto
par Network.visualizer.mediumVisualizer spectrumFigureWidth 200
par Network.visualizer.mediumVisualizer spectrumFigureHeight 120
par Network.visualizer.mediumVisualizer spectrumFigureXTickCount 3
par Network.visualizer.mediumVisualizer spectrumFigureYTickCount 5
par Network.visualizer.mediumVisualizer spectrumFigureInterpolationSize 5
par Network.visualizer.mediumVisualizer spectrumPlacementHint "\"bottomCenter\""
par Network.visualizer.mediumVisualizer spectrumPlacementPriority -1
par Network.visualizer.mediumVisualizer displaySpectrograms false
par Network.visualizer.mediumVisualizer spectrogramMode "\"auto\""
attr enum total,signal,auto
par Network.visualizer.mediumVisualizer spectrogramPixelMode "\"mean\""
attr enum sample,partition,mean
par Network.visualizer.mediumVisualizer spectrogramFigureWidth 200
par Network.visualizer.mediumVisualizer spectrogramFigureHeight 120
par Network.visualizer.mediumVisualizer spectrogramPixmapWidth 200
par Network.visualizer.mediumVisualizer spectrogramPixmapHeight 120
par Network.visualizer.mediumVisualizer spectrogramFigureXTickCount 3
par Network.visualizer.mediumVisualizer spectrogramFigureYTickCount 5
par Network.visualizer.mediumVisualizer spectrogramPlacementHint "\"bottomCenter\""
par Network.visualizer.mediumVisualizer spectrogramPlacementPriority -1
par Network.visualizer.mediumVisualizer zIndex 0
par Network.visualizer.mediumVisualizer signalShape "\"ring\""
attr enum ring,sphere
par Network.visualizer.mediumVisualizer signalOpacity 0.5
par Network.visualizer.mediumVisualizer signalRingCount 20
par Network.visualizer.mediumVisualizer signalRingSize 50m
attr unit m
par Network.visualizer.mediumVisualizer signalFadingDistance 50m
attr unit m
par Network.visualizer.mediumVisualizer signalFadingFactor 1.2
par Network.visualizer.mediumVisualizer signalWaveCount 20
par Network.visualizer.mediumVisualizer signalWaveLength 50m
attr unit m
par Network.visualizer.mediumVisualizer signalWaveWidth 10m
attr unit m
par Network.visualizer.mediumVisualizer signalWaveFadingAnimationSpeedFactor 1
par Network.visualizer.mediumVisualizer displayCommunicationHeat false
par Network.visualizer.obstacleLossVisualizer typename "\"inet.visualizer.canvas.physicallayer.TracingObstacleLossCanvasVisualizer\""
par Network.visualizer.obstacleLossVisualizer visualizationTargetModule "\"^.^\""
par Network.visualizer.obstacleLossVisualizer visualizationSubjectModule "\"^.^\""
par Network.visualizer.obstacleLossVisualizer tags "\"\""
par Network.visualizer.obstacleLossVisualizer displayIntersections false
par Network.visualizer.obstacleLossVisualizer intersectionLineColor "\"red\""
par Network.visualizer.obstacleLossVisualizer intersectionLineStyle "\"solid\""
par Network.visualizer.obstacleLossVisualizer intersectionLineWidth 1
par Network.visualizer.obstacleLossVisualizer displayFaceNormalVectors false
par Network.visualizer.obstacleLossVisualizer faceNormalLineColor "\"grey\""
par Network.visualizer.obstacleLossVisualizer faceNormalLineStyle "\"solid\""
par Network.visualizer.obstacleLossVisualizer faceNormalLineWidth 1
par Network.visualizer.obstacleLossVisualizer fadeOutMode "\"realTime\""
attr enum realTime,animationTime,simulationTime
par Network.visualizer.obstacleLossVisualizer fadeOutTime 1s
attr unit s
par Network.visualizer.obstacleLossVisualizer fadeOutAnimationSpeed 0
par Network.visualizer.obstacleLossVisualizer zIndex 0
par Network.visualizer.packetDropVisualizer typename "\"inet.visualizer.canvas.common.PacketDropCanvasVisualizer\""
par Network.visualizer.packetDropVisualizer visualizationTargetModule "\"^.^\""
par Network.visualizer.packetDropVisualizer visualizationSubjectModule "\"^.^\""
par Network.visualizer.packetDropVisualizer tags "\"\""
par Network.visualizer.packetDropVisualizer displayPacketDrops false
par Network.visualizer.packetDropVisualizer nodeFilter "\"*\""
attr mutable ""
par Network.visualizer.packetDropVisualizer interfaceFilter "\"*\""
attr mutable ""
par Network.visualizer.packetDropVisualizer packetFilter "(omnetpp::cValueHolder)holder: \"*\""
attr mutable ""
par Network.visualizer.packetDropVisualizer detailsFilter "\"*\""
attr mutable ""
par Network.visualizer.packetDropVisualizer icon "\"msg/packet_s\""
par Network.visualizer.packetDropVisualizer iconTintAmount 1
par Network.visualizer.packetDropVisualizer iconTintColor "\"dark\""
par Network.visualizer.packetDropVisualizer labelFormat "\"%n\""
attr mutable ""
par Network.visualizer.packetDropVisualizer labelFont "\"<default>\""
par Network.visualizer.packetDropVisualizer labelColor "\"black\""
par Network.visualizer.packetDropVisualizer fadeOutMode "\"realTime\""
attr enum realTime,animationTime,simulationTime
par Network.visualizer.packetDropVisualizer fadeOutTime 1s
attr unit s
par Network.visualizer.packetDropVisualizer fadeOutAnimationSpeed 0
par Network.visualizer.packetDropVisualizer zIndex 10
par Network.visualizer.packetDropVisualizer dx 32
par Network.visualizer.packetDropVisualizer dy 64
par Network.visualizer.packetFlowVisualizer typename "\"inet.visualizer.canvas.flow.PacketFlowCanvasVisualizer\""
par Network.visualizer.packetFlowVisualizer visualizationTargetModule "\"^.^\""
par Network.visualizer.packetFlowVisualizer visualizationSubjectModule "\"^.^\""
par Network.visualizer.packetFlowVisualizer tags "\"\""
par Network.visualizer.packetFlowVisualizer displayRoutes false
par Network.visualizer.packetFlowVisualizer startPathSignal "\"packetFlowStarted\""
par Network.visualizer.packetFlowVisualizer extendPathSignal "\"packetReceivedFromLower\""
par Network.visualizer.packetFlowVisualizer endPathSignal "\"packetFlowEnded\""
par Network.visualizer.packetFlowVisualizer nodeFilter "\"*\""
attr mutable ""
par Network.visualizer.packetFlowVisualizer packetFilter "(omnetpp::cValueHolder)holder: \"*\""
attr mutable ""
par Network.visualizer.packetFlowVisualizer lineColor "\"dark\""
attr enum light,dark
par Network.visualizer.packetFlowVisualizer lineStyle "\"dashed\""
par Network.visualizer.packetFlowVisualizer lineWidth 3
par Network.visualizer.packetFlowVisualizer lineSmooth false
par Network.visualizer.packetFlowVisualizer lineShift 16
par Network.visualizer.packetFlowVisualizer lineShiftMode "\"normal\""
par Network.visualizer.packetFlowVisualizer lineContactSpacing 3
par Network.visualizer.packetFlowVisualizer lineContactMode "\"rectangular\""
attr enum circular,rectangular
par Network.visualizer.packetFlowVisualizer labelFormat "\"%L %p pk (%l)\""
par Network.visualizer.packetFlowVisualizer labelFont "\"<default>, 8px\""
par Network.visualizer.packetFlowVisualizer labelColor "\"\""
par Network.visualizer.packetFlowVisualizer fadeOutMode "\"realTime\""
attr enum realTime,animationTime,simulationTime
par Network.visualizer.packetFlowVisualizer fadeOutTime 0s
attr unit s
par Network.visualizer.packetFlowVisualizer fadeOutAnimationSpeed 0
par Network.visualizer.packetFlowVisualizer zIndex 4
par Network.visualizer.queueVisualizer typename "\"inet.visualizer.canvas.common.QueueCanvasVisualizer\""
par Network.visualizer.queueVisualizer visualizationTargetModule "\"^.^\""
par Network.visualizer.queueVisualizer visualizationSubjectModule "\"^.^\""
par Network.visualizer.queueVisualizer tags "\"\""
par Network.visualizer.queueVisualizer networkNodeVisualizerModule "\"^.networkNodeVisualizer\""
par Network.visualizer.queueVisualizer displayQueues false
par Network.visualizer.queueVisualizer queueFilter "\"**\""
par Network.visualizer.queueVisualizer color "\"blue\""
par Network.visualizer.queueVisualizer width 8
par Network.visualizer.queueVisualizer height 24
par Network.visualizer.queueVisualizer spacing 2
par Network.visualizer.queueVisualizer placementHint "\"right\""
par Network.visualizer.queueVisualizer placementPriority 0
par Network.visualizer.queueVisualizer zIndex 10
par Network.visualizer.gateScheduleVisualizer typename "\"inet.visualizer.canvas.common.GateScheduleCanvasVisualizer\""
par Network.visualizer.gateScheduleVisualizer visualizationTargetModule "\"^.^\""
par Network.visualizer.gateScheduleVisualizer visualizationSubjectModule "\"^.^\""
par Network.visualizer.gateScheduleVisualizer tags "\"\""
par Network.visualizer.gateScheduleVisualizer networkNodeVisualizerModule "\"^.networkNodeVisualizer\""
par Network.visualizer.gateScheduleVisualizer displayGateSchedules false
par Network.visualizer.gateScheduleVisualizer labelFormat "\"%i %D\""
par Network.visualizer.gateScheduleVisualizer gateFilter "\"**\""
par Network.visualizer.gateScheduleVisualizer width 100
par Network.visualizer.gateScheduleVisualizer height 8
par Network.visualizer.gateScheduleVisualizer spacing 2
par Network.visualizer.gateScheduleVisualizer placementHint "\"right\""
par Network.visualizer.gateScheduleVisualizer placementPriority 0
par Network.visualizer.gateScheduleVisualizer displayDuration 0s
attr mutable ""
attr unit s
par Network.visualizer.gateScheduleVisualizer currentTimePosition 50
par Network.visualizer.gateScheduleVisualizer zIndex 10
par Network.visualizer.radioVisualizer typename "\"inet.visualizer.canvas.physicallayer.RadioCanvasVisualizer\""
par Network.visualizer.radioVisualizer visualizationTargetModule "\"^.^\""
par Network.visualizer.radioVisualizer visualizationSubjectModule "\"^.^\""
par Network.visualizer.radioVisualizer tags "\"\""
par Network.visualizer.radioVisualizer networkNodeVisualizerModule "\"^.networkNodeVisualizer\""
par Network.visualizer.radioVisualizer displayRadios false
par Network.visualizer.radioVisualizer displayRadioMode true
par Network.visualizer.radioVisualizer displayReceptionState true
par Network.visualizer.radioVisualizer displayTransmissionState true
par Network.visualizer.radioVisualizer displayAntennaLobes false
par Network.visualizer.radioVisualizer radioFilter "\"**\""
attr mutable ""
par Network.visualizer.radioVisualizer radioModeImages "\"block/process_vs block/timer_vs block/wrx_vs block/wtx_vs block/wrxtx_vs block/cogwheel_vs\""
par Network.visualizer.radioVisualizer receptionStateImages "\"- - misc/receiving misc/receiving\""
par Network.visualizer.radioVisualizer transmissionStateImages "\"- - misc/transmitting\""
par Network.visualizer.radioVisualizer width 16
par Network.visualizer.radioVisualizer height 16
par Network.visualizer.radioVisualizer placementHint "\"bottomRight\""
par Network.visualizer.radioVisualizer placementPriority 0
par Network.visualizer.radioVisualizer antennaLobeNormalize false
par Network.visualizer.radioVisualizer antennaLobeRelativeLabels false
par Network.visualizer.radioVisualizer antennaLobePlaneGlobal true
par Network.visualizer.radioVisualizer antennaLobePlane "\"view\""
attr enum view,xy,xz,yz
par Network.visualizer.radioVisualizer antennaLobeMode "\"logarithmic\""
attr enum logarithmic,linear
par Network.visualizer.radioVisualizer antennaLobeLogarithmicBase 10
par Network.visualizer.radioVisualizer antennaLobeLogarithmicScale 100
par Network.visualizer.radioVisualizer antennaLobeRadius 100
par Network.visualizer.radioVisualizer antennaLobeStep 10deg
attr unit deg
par Network.visualizer.radioVisualizer antennaLobeOpacity 0.25
par Network.visualizer.radioVisualizer antennaLobeLineSmooth true
par Network.visualizer.radioVisualizer antennaLobeLineColor "\"black\""
par Network.visualizer.radioVisualizer antennaLobeLineStyle "\"solid\""
par Network.visualizer.radioVisualizer antennaLobeLineWidth 1
par Network.visualizer.radioVisualizer antennaLobeFillColor "\"white\""
par Network.visualizer.radioVisualizer zIndex 10
par Network.visualizer.physicalLinkVisualizer typename "\"inet.visualizer.canvas.physicallayer.PhysicalLinkCanvasVisualizer\""
par Network.visualizer.physicalLinkVisualizer visualizationTargetModule "\"^.^\""
par Network.visualizer.physicalLinkVisualizer visualizationSubjectModule "\"^.^\""
par Network.visualizer.physicalLinkVisualizer tags "\"\""
par Network.visualizer.physicalLinkVisualizer displayLinks false
par Network.visualizer.physicalLinkVisualizer activityLevel "\"service\""
attr enum service,peer,protocol
par Network.visualizer.physicalLinkVisualizer nodeFilter "\"*\""
attr mutable ""
par Network.visualizer.physicalLinkVisualizer interfaceFilter "\"*\""
attr mutable ""
par Network.visualizer.physicalLinkVisualizer packetFilter "(omnetpp::cValueHolder)holder: \"*\""
attr mutable ""
par Network.visualizer.physicalLinkVisualizer lineColor "\"olive\""
par Network.visualizer.physicalLinkVisualizer lineStyle "\"dotted\""
par Network.visualizer.physicalLinkVisualizer lineWidth 3
par Network.visualizer.physicalLinkVisualizer lineShift 16
par Network.visualizer.physicalLinkVisualizer lineShiftMode "\"normal\""
par Network.visualizer.physicalLinkVisualizer lineContactSpacing 3
par Network.visualizer.physicalLinkVisualizer lineContactMode "\"rectangular\""
attr enum circular,rectangular
par Network.visualizer.physicalLinkVisualizer labelFormat "\"%n\""
par Network.visualizer.physicalLinkVisualizer labelFont "\"<default>, 8px\""
par Network.visualizer.physicalLinkVisualizer labelColor "\"olive\""
par Network.visualizer.physicalLinkVisualizer fadeOutMode "\"realTime\""
attr enum realTime,animationTime,simulationTime
par Network.visualizer.physicalLinkVisualizer fadeOutTime 1s
attr unit s
par Network.visualizer.physicalLinkVisualizer fadeOutAnimationSpeed 0
par Network.visualizer.physicalLinkVisualizer holdAnimationTime 0s
attr unit s
par Network.visualizer.physicalLinkVisualizer zIndex 1
par Network.visualizer.interfaceTableVisualizer typename "\"inet.visualizer.canvas.linklayer.InterfaceTableCanvasVisualizer\""
par Network.visualizer.interfaceTableVisualizer visualizationTargetModule "\"^.^\""
par Network.visualizer.interfaceTableVisualizer visualizationSubjectModule "\"^.^\""
par Network.visualizer.interfaceTableVisualizer tags "\"\""
par Network.visualizer.interfaceTableVisualizer networkNodeVisualizerModule "\"^.networkNodeVisualizer\""
par Network.visualizer.interfaceTableVisualizer displayInterfaceTables true
par Network.visualizer.interfaceTableVisualizer displayWiredInterfacesAtConnections true
par Network.visualizer.interfaceTableVisualizer displayBackground false
par Network.visualizer.interfaceTableVisualizer nodeFilter "\"not (*router*)\""
attr mutable ""
par Network.visualizer.interfaceTableVisualizer interfaceFilter "\"not(lo*)\""
attr mutable ""
par Network.visualizer.interfaceTableVisualizer format "\"%N %\\\\%a%/%l\""
attr mutable ""
par Network.visualizer.interfaceTableVisualizer placementHint "\"top\""
par Network.visualizer.interfaceTableVisualizer placementPriority 0
par Network.visualizer.interfaceTableVisualizer font "\"<default>\""
par Network.visualizer.interfaceTableVisualizer textColor "\"#005030\""
par Network.visualizer.interfaceTableVisualizer backgroundColor "\"white\""
par Network.visualizer.interfaceTableVisualizer opacity 1
par Network.visualizer.interfaceTableVisualizer zIndex 10
par Network.visualizer.dataLinkVisualizer typename "\"inet.visualizer.canvas.linklayer.DataLinkCanvasVisualizer\""
par Network.visualizer.dataLinkVisualizer visualizationTargetModule "\"^.^\""
par Network.visualizer.dataLinkVisualizer visualizationSubjectModule "\"^.^\""
par Network.visualizer.dataLinkVisualizer tags "\"\""
par Network.visualizer.dataLinkVisualizer displayLinks false
par Network.visualizer.dataLinkVisualizer activityLevel "\"service\""
attr enum service,peer,protocol
par Network.visualizer.dataLinkVisualizer nodeFilter "\"*\""
attr mutable ""
par Network.visualizer.dataLinkVisualizer interfaceFilter "\"*\""
attr mutable ""
par Network.visualizer.dataLinkVisualizer packetFilter "(omnetpp::cValueHolder)holder: \"*\""
attr mutable ""
par Network.visualizer.dataLinkVisualizer lineColor "\"darkcyan\""
par Network.visualizer.dataLinkVisualizer lineStyle "\"solid\""
par Network.visualizer.dataLinkVisualizer lineWidth 3
par Network.visualizer.dataLinkVisualizer lineShift 16
par Network.visualizer.dataLinkVisualizer lineShiftMode "\"normal\""
par Network.visualizer.dataLinkVisualizer lineContactSpacing 3
par Network.visualizer.dataLinkVisualizer lineContactMode "\"rectangular\""
attr enum circular,rectangular
par Network.visualizer.dataLinkVisualizer labelFormat "\"%n\""
par Network.visualizer.dataLinkVisualizer labelFont "\"<default>, 8px\""
par Network.visualizer.dataLinkVisualizer labelColor "\"darkcyan\""
par Network.visualizer.dataLinkVisualizer fadeOutMode "\"realTime\""
attr enum realTime,animationTime,simulationTime
par Network.visualizer.dataLinkVisualizer fadeOutTime 1s
attr unit s
par Network.visualizer.dataLinkVisualizer fadeOutAnimationSpeed 0
par Network.visualizer.dataLinkVisualizer holdAnimationTime 0s
attr unit s
par Network.visualizer.dataLinkVisualizer zIndex 2
par Network.visualizer.linkBreakVisualizer typename "\"inet.visualizer.canvas.linklayer.LinkBreakCanvasVisualizer\""
par Network.visualizer.linkBreakVisualizer visualizationTargetModule "\"^.^\""
par Network.visualizer.linkBreakVisualizer visualizationSubjectModule "\"^.^\""
par Network.visualizer.linkBreakVisualizer tags "\"\""
par Network.visualizer.linkBreakVisualizer displayLinkBreaks false
par Network.visualizer.linkBreakVisualizer nodeFilter "\"*\""
attr mutable ""
par Network.visualizer.linkBreakVisualizer interfaceFilter "\"*\""
attr mutable ""
par Network.visualizer.linkBreakVisualizer packetFilter "(omnetpp::cValueHolder)holder: \"*\""
attr mutable ""
par Network.visualizer.linkBreakVisualizer icon "\"status/stop\""
par Network.visualizer.linkBreakVisualizer iconTintAmount 0
par Network.visualizer.linkBreakVisualizer iconTintColor "\"\""
par Network.visualizer.linkBreakVisualizer fadeOutMode "\"realTime\""
attr enum realTime,animationTime,simulationTime
par Network.visualizer.linkBreakVisualizer fadeOutTime 1s
attr unit s
par Network.visualizer.linkBreakVisualizer fadeOutAnimationSpeed 0
par Network.visualizer.linkBreakVisualizer zIndex 2
par Network.visualizer.ieee80211Visualizer typename "\"inet.visualizer.canvas.linklayer.Ieee80211CanvasVisualizer\""
par Network.visualizer.ieee80211Visualizer visualizationTargetModule "\"^.^\""
par Network.visualizer.ieee80211Visualizer visualizationSubjectModule "\"^.^\""
par Network.visualizer.ieee80211Visualizer tags "\"\""
par Network.visualizer.ieee80211Visualizer networkNodeVisualizerModule "\"^.networkNodeVisualizer\""
par Network.visualizer.ieee80211Visualizer displayAssociations false
par Network.visualizer.ieee80211Visualizer nodeFilter "\"*\""
attr mutable ""
par Network.visualizer.ieee80211Visualizer interfaceFilter "\"*\""
attr mutable ""
par Network.visualizer.ieee80211Visualizer minPower -85dBm
attr unit dBm
par Network.visualizer.ieee80211Visualizer maxPower -50dBm
attr unit dBm
par Network.visualizer.ieee80211Visualizer icons "\"misc/signal_power_0 misc/signal_power_1 misc/signal_power_2 misc/signal_power_3\""
par Network.visualizer.ieee80211Visualizer iconColor "\"dark\""
attr enum light,dark
par Network.visualizer.ieee80211Visualizer labelFont "\"<default>\""
par Network.visualizer.ieee80211Visualizer labelColor "\"black\""
par Network.visualizer.ieee80211Visualizer placementHint "\"top\""
par Network.visualizer.ieee80211Visualizer placementPriority 0
par Network.visualizer.ieee80211Visualizer zIndex 2
par Network.visualizer.networkRouteVisualizer typename "\"inet.visualizer.canvas.networklayer.NetworkRouteCanvasVisualizer\""
par Network.visualizer.networkRouteVisualizer visualizationTargetModule "\"^.^\""
par Network.visualizer.networkRouteVisualizer visualizationSubjectModule "\"^.^\""
par Network.visualizer.networkRouteVisualizer tags "\"\""
par Network.visualizer.networkRouteVisualizer displayRoutes false
par Network.visualizer.networkRouteVisualizer startPathSignal "\"packetReceivedFromUpper\""
par Network.visualizer.networkRouteVisualizer extendPathSignal "\"packetReceivedFromLower\""
par Network.visualizer.networkRouteVisualizer endPathSignal "\"packetSentToUpper\""
par Network.visualizer.networkRouteVisualizer nodeFilter "\"*\""
attr mutable ""
par Network.visualizer.networkRouteVisualizer packetFilter "(omnetpp::cValueHolder)holder: \"*\""
attr mutable ""
par Network.visualizer.networkRouteVisualizer lineColor "\"dark\""
attr enum light,dark
par Network.visualizer.networkRouteVisualizer lineStyle "\"solid\""
par Network.visualizer.networkRouteVisualizer lineWidth 3
par Network.visualizer.networkRouteVisualizer lineSmooth false
par Network.visualizer.networkRouteVisualizer lineShift 16
par Network.visualizer.networkRouteVisualizer lineShiftMode "\"normal\""
par Network.visualizer.networkRouteVisualizer lineContactSpacing 3
par Network.visualizer.networkRouteVisualizer lineContactMode "\"rectangular\""
attr enum circular,rectangular
par Network.visualizer.networkRouteVisualizer labelFormat "\"%n\""
par Network.visualizer.networkRouteVisualizer labelFont "\"<default>, 8px\""
par Network.visualizer.networkRouteVisualizer labelColor "\"\""
par Network.visualizer.networkRouteVisualizer fadeOutMode "\"realTime\""
attr enum realTime,animationTime,simulationTime
par Network.visualizer.networkRouteVisualizer fadeOutTime 1s
attr unit s
par Network.visualizer.networkRouteVisualizer fadeOutAnimationSpeed 0
par Network.visualizer.networkRouteVisualizer zIndex 3
par Network.visualizer.routingTableVisualizer typename "\"inet.visualizer.canvas.networklayer.RoutingTableCanvasVisualizer\""
par Network.visualizer.routingTableVisualizer visualizationTargetModule "\"^.^\""
par Network.visualizer.routingTableVisualizer visualizationSubjectModule "\"^.^\""
par Network.visualizer.routingTableVisualizer tags "\"\""
par Network.visualizer.routingTableVisualizer displayRoutingTables false
par Network.visualizer.routingTableVisualizer displayRoutesIndividually true
par Network.visualizer.routingTableVisualizer displayLabels true
par Network.visualizer.routingTableVisualizer destinationFilter "\"*\""
attr mutable ""
par Network.visualizer.routingTableVisualizer nodeFilter "\"*\""
attr mutable ""
par Network.visualizer.routingTableVisualizer lineColor "\"black\""
par Network.visualizer.routingTableVisualizer lineStyle "\"solid\""
par Network.visualizer.routingTableVisualizer lineWidth 2
par Network.visualizer.routingTableVisualizer lineShift 16
par Network.visualizer.routingTableVisualizer lineShiftMode "\"normal\""
par Network.visualizer.routingTableVisualizer lineContactSpacing 3
par Network.visualizer.routingTableVisualizer lineContactMode "\"rectangular\""
attr enum circular,rectangular
par Network.visualizer.routingTableVisualizer labelFormat "\"%d/%m -> %g (%n)\""
attr mutable ""
par Network.visualizer.routingTableVisualizer labelFont "\"<default>, 8px\""
par Network.visualizer.routingTableVisualizer labelColor "\"black\""
par Network.visualizer.routingTableVisualizer zIndex 0
par Network.visualizer.transportRouteVisualizer typename "\"inet.visualizer.canvas.transportlayer.TransportRouteCanvasVisualizer\""
par Network.visualizer.transportRouteVisualizer visualizationTargetModule "\"^.^\""
par Network.visualizer.transportRouteVisualizer visualizationSubjectModule "\"^.^\""
par Network.visualizer.transportRouteVisualizer tags "\"\""
par Network.visualizer.transportRouteVisualizer displayRoutes false
par Network.visualizer.transportRouteVisualizer startPathSignal "\"packetReceivedFromUpper\""
par Network.visualizer.transportRouteVisualizer extendPathSignal "\"packetReceivedFromLower\""
par Network.visualizer.transportRouteVisualizer endPathSignal "\"packetSentToUpper\""
par Network.visualizer.transportRouteVisualizer nodeFilter "\"*\""
attr mutable ""
par Network.visualizer.transportRouteVisualizer packetFilter "(omnetpp::cValueHolder)holder: \"*\""
attr mutable ""
par Network.visualizer.transportRouteVisualizer lineColor "\"dark\""
attr enum light,dark
par Network.visualizer.transportRouteVisualizer lineStyle "\"solid\""
par Network.visualizer.transportRouteVisualizer lineWidth 3
par Network.visualizer.transportRouteVisualizer lineSmooth false
par Network.visualizer.transportRouteVisualizer lineShift 16
par Network.visualizer.transportRouteVisualizer lineShiftMode "\"normal\""
par Network.visualizer.transportRouteVisualizer lineContactSpacing 3
par Network.visualizer.transportRouteVisualizer lineContactMode "\"rectangular\""
attr enum circular,rectangular
par Network.visualizer.transportRouteVisualizer labelFormat "\"%n\""
par Network.visualizer.transportRouteVisualizer labelFont "\"<default>, 8px\""
par Network.visualizer.transportRouteVisualizer labelColor "\"\""
par Network.visualizer.transportRouteVisualizer fadeOutMode "\"realTime\""
attr enum realTime,animationTime,simulationTime
par Network.visualizer.transportRouteVisualizer fadeOutTime 1s
attr unit s
par Network.visualizer.transportRouteVisualizer fadeOutAnimationSpeed 0
par Network.visualizer.transportRouteVisualizer zIndex 4
par Network.visualizer.transportConnectionVisualizer typename "\"inet.visualizer.canvas.transportlayer.TransportConnectionCanvasVisualizer\""
par Network.visualizer.transportConnectionVisualizer visualizationTargetModule "\"^.^\""
par Network.visualizer.transportConnectionVisualizer visualizationSubjectModule "\"^.^\""
par Network.visualizer.transportConnectionVisualizer tags "\"\""
par Network.visualizer.transportConnectionVisualizer networkNodeVisualizerModule "\"^.networkNodeVisualizer\""
par Network.visualizer.transportConnectionVisualizer displayTransportConnections false
par Network.visualizer.transportConnectionVisualizer sourceNodeFilter "\"*\""
attr mutable ""
par Network.visualizer.transportConnectionVisualizer sourcePortFilter "\"*\""
attr mutable ""
par Network.visualizer.transportConnectionVisualizer destinationNodeFilter "\"*\""
attr mutable ""
par Network.visualizer.transportConnectionVisualizer destinationPortFilter "\"*\""
attr mutable ""
par Network.visualizer.transportConnectionVisualizer icon "\"misc/marker_s\""
par Network.visualizer.transportConnectionVisualizer iconColor "\"dark\""
attr enum light,dark
par Network.visualizer.transportConnectionVisualizer labelFont "\"<default>\""
par Network.visualizer.transportConnectionVisualizer labelColor "\"black\""
par Network.visualizer.transportConnectionVisualizer placementHint "\"top\""
par Network.visualizer.transportConnectionVisualizer placementPriority 0
par Network.visualizer.transportConnectionVisualizer zIndex 4
par Network.visualizer.failureProtectionConfigurationVisualizer typename "\"inet.visualizer.canvas.configurator.FailureProtectionConfigurationCanvasVisualizer\""
par Network.visualizer.failureProtectionConfigurationVisualizer visualizationTargetModule "\"^.^\""
par Network.visualizer.failureProtectionConfigurationVisualizer visualizationSubjectModule "\"^.^\""
par Network.visualizer.failureProtectionConfigurationVisualizer tags "\"\""
par Network.visualizer.failureProtectionConfigurationVisualizer displayTrees false
par Network.visualizer.failureProtectionConfigurationVisualizer lineColor "\"dark\""
attr enum light,dark
par Network.visualizer.failureProtectionConfigurationVisualizer lineStyle "\"solid\""
par Network.visualizer.failureProtectionConfigurationVisualizer lineWidth 3
par Network.visualizer.failureProtectionConfigurationVisualizer lineSmooth false
par Network.visualizer.failureProtectionConfigurationVisualizer lineShift 16
par Network.visualizer.failureProtectionConfigurationVisualizer lineShiftMode "\"normal\""
par Network.visualizer.failureProtectionConfigurationVisualizer lineContactSpacing 3
par Network.visualizer.failureProtectionConfigurationVisualizer lineContactMode "\"rectangular\""
attr enum circular,rectangular
par Network.visualizer.failureProtectionConfigurationVisualizer failureProtectionConfiguratorModule "\"failureProtectionConfigurator\""
par Network.visualizer.failureProtectionConfigurationVisualizer streamFilter "\"*\""
par Network.visualizer.failureProtectionConfigurationVisualizer zIndex 3
par Network.visualizer.streamRedundancyConfigurationVisualizer typename "\"inet.visualizer.canvas.configurator.StreamRedundancyConfigurationCanvasVisualizer\""
par Network.visualizer.streamRedundancyConfigurationVisualizer visualizationTargetModule "\"^.^\""
par Network.visualizer.streamRedundancyConfigurationVisualizer visualizationSubjectModule "\"^.^\""
par Network.visualizer.streamRedundancyConfigurationVisualizer tags "\"\""
par Network.visualizer.streamRedundancyConfigurationVisualizer displayTrees false
par Network.visualizer.streamRedundancyConfigurationVisualizer lineColor "\"dark\""
attr enum light,dark
par Network.visualizer.streamRedundancyConfigurationVisualizer lineStyle "\"solid\""
par Network.visualizer.streamRedundancyConfigurationVisualizer lineWidth 3
par Network.visualizer.streamRedundancyConfigurationVisualizer lineSmooth false
par Network.visualizer.streamRedundancyConfigurationVisualizer lineShift 16
par Network.visualizer.streamRedundancyConfigurationVisualizer lineShiftMode "\"normal\""
par Network.visualizer.streamRedundancyConfigurationVisualizer lineContactSpacing 3
par Network.visualizer.streamRedundancyConfigurationVisualizer lineContactMode "\"rectangular\""
attr enum circular,rectangular
par Network.visualizer.streamRedundancyConfigurationVisualizer streamRedundancyConfiguratorModule "\"streamRedundancyConfigurator\""
par Network.visualizer.streamRedundancyConfigurationVisualizer streamFilter "\"*\""
par Network.visualizer.streamRedundancyConfigurationVisualizer zIndex 3
par Network.visualizer typename "\"inet.visualizer.canvas.integrated.IntegratedCanvasVisualizer\""
par Network.mainrouter.ethg$i[0].channel typename "\"ned.IdealChannel\""
par Network.mainrouter.eth[0].phys$o.channel typename "\"ned.IdealChannel\""
par Network.mainrouter.ethg$i[1].channel typename "\"ned.IdealChannel\""
par Network.mainrouter.eth[1].phys$o.channel typename "\"ned.IdealChannel\""
par Network.mainrouter.ethg$i[2].channel typename "\"ned.IdealChannel\""
par Network.mainrouter.eth[2].phys$o.channel typename "\"ned.IdealChannel\""
par Network.mainrouter.ethg$i[3].channel typename "\"ned.IdealChannel\""
par Network.mainrouter.eth[3].phys$o.channel typename "\"ned.IdealChannel\""
par Network.mainrouter.interfaceTable typename "\"inet.networklayer.common.InterfaceTable\""
par Network.mainrouter.interfaceTable displayAddresses false
par Network.mainrouter.cb typename "\"inet.common.MessageDispatcher\""
par Network.mainrouter.cb displayStringTextFormat "\"processed %p pk (%l)\""
par Network.mainrouter.cb forwardServiceRegistration true
par Network.mainrouter.cb forwardProtocolRegistration true
par Network.mainrouter.bl typename "\"inet.common.MessageDispatcher\""
par Network.mainrouter.bl displayStringTextFormat "\"processed %p pk (%l)\""
par Network.mainrouter.bl forwardServiceRegistration true
par Network.mainrouter.bl forwardProtocolRegistration true
par Network.mainrouter.ethernet typename "\"inet.linklayer.ethernet.basic.EthernetEncapsulation\""
par Network.mainrouter.ethernet registerProtocol true
par Network.mainrouter.ethernet interfaceTableModule "\"Network.mainrouter.interfaceTable\""
par Network.mainrouter.ethernet fcsMode "\"declared\""
attr enum declared,computed
par Network.mainrouter.ethernet stopOperationExtraTime -1s
attr unit s
par Network.mainrouter.ethernet stopOperationTimeout 2s
attr unit s
scalar Network.mainrouter.ethernet pauseSent:count 0
attr recordingmode count
attr title "pause sent, count"
scalar Network.mainrouter.ethernet pauseSent:sum 0
attr recordingmode sum
attr title "pause sent, sum"
scalar Network.mainrouter.ethernet decapPk:count 559
attr interpolationmode none
attr recordingmode count
attr source decapPk
attr title "packets decapsulated, count"
scalar Network.mainrouter.ethernet decapPk:sum(packetBytes) 81181
attr interpolationmode none
attr recordingmode sum(packetBytes)
attr source decapPk
attr title "packets decapsulated, sum(packetBytes)"
scalar Network.mainrouter.ethernet encapPk:count 559
attr interpolationmode none
attr recordingmode count
attr source encapPk
attr title "packets encapsulated, count"
scalar Network.mainrouter.ethernet encapPk:sum(packetBytes) 81181
attr interpolationmode none
attr recordingmode sum(packetBytes)
attr source encapPk
attr title "packets encapsulated, sum(packetBytes)"
par Network.mainrouter.li typename "\"inet.common.MessageDispatcher\""
par Network.mainrouter.li displayStringTextFormat "\"processed %p pk (%l)\""
par Network.mainrouter.li forwardServiceRegistration true
par Network.mainrouter.li forwardProtocolRegistration true
par Network.mainrouter.lo[0].upperLayerIn.channel typename "\"ned.IdealChannel\""
par Network.mainrouter.lo[0].lo.upperLayerOut.channel typename "\"ned.IdealChannel\""
par Network.mainrouter.lo[0].lo typename "\"inet.linklayer.loopback.Loopback\""
par Network.mainrouter.lo[0].lo interfaceTableModule "\"Network.mainrouter.interfaceTable\""
par Network.mainrouter.lo[0].lo mtu 4470B
attr unit B
scalar Network.mainrouter.lo[0].lo rcvdPkFromHl:count 0
attr interpolationmode none
attr recordingmode count
attr source packetReceivedFromUpper
attr title "packets received from higher layer, count"
scalar Network.mainrouter.lo[0].lo rcvdPkFromHl:sum(packetBytes) 0
attr interpolationmode none
attr recordingmode sum(packetBytes)
attr source packetReceivedFromUpper
attr title "packets received from higher layer, sum(packetBytes)"
scalar Network.mainrouter.lo[0].lo passedUpPk:count 0
attr interpolationmode none
attr recordingmode count
attr source packetSentToUpper
attr title "packets passed to higher layer, count"
scalar Network.mainrouter.lo[0].lo passedUpPk:sum(packetBytes) 0
attr interpolationmode none
attr recordingmode sum(packetBytes)
attr source packetSentToUpper
attr title "packets passed to higher layer, sum(packetBytes)"
par Network.mainrouter.lo[0] typename "\"inet.linklayer.loopback.LoopbackInterface\""
par Network.mainrouter.lo[0] displayStringTextFormat "\"%a (%i)\\n%m\""
par Network.mainrouter.lo[0] recordPcap false
par Network.mainrouter.lo[0] numPcapRecorders 0
par Network.mainrouter.lo[0] interfaceTableModule "\"Network.mainrouter.interfaceTable\""
scalar Network.mainrouter.lo[0] packetDropInterfaceDown:count 0
attr interpolationmode none
attr recordingmode count
attr source packetDropReasonIsInterfaceDown(packetDropped)
attr title "packet drops: interface down, count"
scalar Network.mainrouter.lo[0] packetDropInterfaceDown:sum(packetBytes) 0
attr interpolationmode none
attr recordingmode sum(packetBytes)
attr source packetDropReasonIsInterfaceDown(packetDropped)
attr title "packet drops: interface down, sum(packetBytes)"
scalar Network.mainrouter.lo[0] packetDropNoCarrier:count 0
attr interpolationmode none
attr recordingmode count
attr source packetDropReasonIsNoCarrier(packetDropped)
attr title "packet drops: no carrier, count"
scalar Network.mainrouter.lo[0] packetDropNoCarrier:sum(packetBytes) 0
attr interpolationmode none
attr recordingmode sum(packetBytes)
attr source packetDropReasonIsNoCarrier(packetDropped)
attr title "packet drops: no carrier, sum(packetBytes)"
par Network.mainrouter.eth[0].mac.phys$o.channel typename "\"ned.IdealChannel\""
par Network.mainrouter.eth[0].phys$i.channel typename "\"ned.IdealChannel\""
par Network.mainrouter.eth[0].upperLayerIn.channel typename "\"ned.IdealChannel\""
par Network.mainrouter.eth[0].mac.upperLayerOut.channel typename "\"ned.IdealChannel\""
par Network.mainrouter.eth[0].queue typename "\"inet.queueing.queue.DropTailQueue\""
par Network.mainrouter.eth[0].queue displayStringTextFormat "\"contains %p pk (%l) pushed %u\\npulled %o removed %r dropped %d\""
par Network.mainrouter.eth[0].queue packetCapacity 10
par Network.mainrouter.eth[0].queue dataCapacity -1b
attr unit b
par Network.mainrouter.eth[0].queue dropperClass "\"inet::queueing::PacketAtCollectionEndDropper\""
par Network.mainrouter.eth[0].queue comparatorClass "\"\""
par Network.mainrouter.eth[0].queue bufferModule "\"\""
scalar Network.mainrouter.eth[0].queue queueLength:last 0
attr autoWarmupFilter false
attr interpolationmode sample-hold
attr recordingmode last
attr source "warmup(atomic(constant0(packetPushEnded) + count(packetPushStarted) - count(packetPulled) - count(packetRemoved) - count(packetDropped)))"
attr title "queue length, last"
attr unit pk
scalar Network.mainrouter.eth[0].queue queueLength:max 3
attr autoWarmupFilter false
attr interpolationmode sample-hold
attr recordingmode max
attr source "warmup(atomic(constant0(packetPushEnded) + count(packetPushStarted) - count(packetPulled) - count(packetRemoved) - count(packetDropped)))"
attr title "queue length, max"
attr unit pk
scalar Network.mainrouter.eth[0].queue queueLength:timeavg 3.3117311917191e-06
attr autoWarmupFilter false
attr interpolationmode sample-hold
attr recordingmode timeavg
attr source "warmup(atomic(constant0(packetPushEnded) + count(packetPushStarted) - count(packetPulled) - count(packetRemoved) - count(packetDropped)))"
attr title "queue length, timeavg"
attr unit pk
scalar Network.mainrouter.eth[0].queue queueBitLength:last 0
attr autoWarmupFilter false
attr interpolationmode sample-hold
attr recordingmode last
attr source "warmup(atomic(constant0(packetPushEnded) + sum(packetLength(packetPushStarted)) - sum(packetLength(packetPulled)) - sum(packetLength(packetRemoved)) - sum(packetLength(packetDropped))))"
attr title "queue bit length, last"
attr unit b
scalar Network.mainrouter.eth[0].queue queueBitLength:max 1584
attr autoWarmupFilter false
attr interpolationmode sample-hold
attr recordingmode max
attr source "warmup(atomic(constant0(packetPushEnded) + sum(packetLength(packetPushStarted)) - sum(packetLength(packetPulled)) - sum(packetLength(packetRemoved)) - sum(packetLength(packetDropped))))"
attr title "queue bit length, max"
attr unit b
scalar Network.mainrouter.eth[0].queue queueBitLength:timeavg 0.0017485940692277
attr autoWarmupFilter false
attr interpolationmode sample-hold
attr recordingmode timeavg
attr source "warmup(atomic(constant0(packetPushEnded) + sum(packetLength(packetPushStarted)) - sum(packetLength(packetPulled)) - sum(packetLength(packetRemoved)) - sum(packetLength(packetDropped))))"
attr title "queue bit length, timeavg"
attr unit b
statistic Network.mainrouter.eth[0].queue queueingTime:histogram
field count 354
field mean 2.7597740112994e-06
field stddev 4.2867094103964e-06
field min 0
field max 2.064e-05
field sum 0.00097696
field sqrsum 9.1828736e-09
attr interpolationmode none
attr recordingmode histogram
attr source queueingTime(packetPulled)
attr title "queueing times"
attr unit s
bin	-inf	0
bin	0	236
bin	4e-07	0
bin	8e-07	0
bin	1.2e-06	0
bin	1.6e-06	0
bin	2e-06	0
bin	2.4e-06	0
bin	2.8e-06	0
bin	3.2e-06	0
bin	3.6e-06	0
bin	4e-06	0
bin	4.4e-06	0
bin	4.8e-06	0
bin	5.2e-06	0
bin	5.6e-06	0
bin	6e-06	0
bin	6.4e-06	0
bin	6.8e-06	96
bin	7.2e-06	0
bin	7.6e-06	0
bin	8e-06	0
bin	8.4e-06	0
bin	8.8e-06	0
bin	9.2e-06	0
bin	9.6e-06	0
bin	1e-05	0
bin	1.04e-05	0
bin	1.08e-05	0
bin	1.12e-05	0
bin	1.16e-05	0
bin	1.2e-05	0
bin	1.24e-05	0
bin	1.28e-05	0
bin	1.32e-05	0
bin	1.36e-05	20
bin	1.4e-05	0
bin	1.44e-05	0
bin	1.48e-05	0
bin	1.52e-05	0
bin	1.56e-05	0
bin	1.6e-05	0
bin	1.64e-05	0
bin	1.68e-05	0
bin	1.72e-05	0
bin	1.76e-05	0
bin	1.8e-05	0
bin	1.84e-05	0
bin	1.88e-05	0
bin	1.92e-05	0
bin	1.96e-05	0
bin	2e-05	0
bin	2.04e-05	2
bin	2.08e-05	0
scalar Network.mainrouter.eth[0].queue outgoingPackets:count 354
attr recordingmode count
attr source packetPulled
attr title "outgoing packets, count"
attr unit pk
scalar Network.mainrouter.eth[0].queue outgoingPacketLengths:sum 186912
attr interpolationmode none
attr recordingmode sum
attr source packetLength(packetPulled)
attr title "outgoing packet lengths, sum"
attr unit b
statistic Network.mainrouter.eth[0].queue outgoingPacketLengths:histogram
field count 354
field mean 528
field stddev 0
field min 528
field max 528
field sum 186912
field sqrsum 98689536
attr interpolationmode none
attr recordingmode histogram
attr source packetLength(packetPulled)
attr title "outgoing packet lengths"
attr unit b
bin	-inf	0
bin	527	0
bin	528	354
bin	529	0
statistic Network.mainrouter.eth[0].queue flowQueueingTime:histogram
field count 0
field mean nan
field stddev nan
field min nan
field max nan
field sum 0
field sqrsum 0
attr interpolationmode none
attr recordingmode histogram
attr source queueingTime(demuxFlow(packetPulled))
attr title "flow queueing times"
attr unit s
bin	-inf	0
bin	0	0
bin	1	0
scalar Network.mainrouter.eth[0].queue incomingPackets:count 354
attr recordingmode count
attr source packetPushStarted
attr title "incoming packets, count"
attr unit pk
scalar Network.mainrouter.eth[0].queue incomingPacketLengths:sum 186912
attr interpolationmode none
attr recordingmode sum
attr source packetLength(packetPushStarted)
attr title "incoming packet lengths, sum"
attr unit b
statistic Network.mainrouter.eth[0].queue incomingPacketLengths:histogram
field count 354
field mean 528
field stddev 0
field min 528
field max 528
field sum 186912
field sqrsum 98689536
attr interpolationmode none
attr recordingmode histogram
attr source packetLength(packetPushStarted)
attr title "incoming packet lengths"
attr unit b
bin	-inf	0
bin	527	0
bin	528	354
bin	529	0
scalar Network.mainrouter.eth[0].queue droppedPacketsQueueOverflow:count 0
attr interpolationmode none
attr recordingmode count
attr source packetDropReasonIsQueueOverflow(packetDropped)
attr title "dropped packets: queue overflow, count"
attr unit pk
scalar Network.mainrouter.eth[0].queue droppedPacketLengthsQueueOverflow:sum 0
attr interpolationmode none
attr recordingmode sum
attr source packetLength(packetDropReasonIsQueueOverflow(packetDropped))
attr title "dropped packet lengths: queue overflow, sum"
attr unit b
par Network.mainrouter.eth[0].mac typename "\"inet.linklayer.ethernet.basic.EthernetMac\""
par Network.mainrouter.eth[0].mac interfaceTableModule "\"Network.mainrouter.interfaceTable\""
par Network.mainrouter.eth[0].mac displayStringTextFormat "\"rate: %b\\nsent: %s, rcvd: %r\\nqueue: %q, drop: %d\""
par Network.mainrouter.eth[0].mac sendRawBytes false
par Network.mainrouter.eth[0].mac promiscuous false
par Network.mainrouter.eth[0].mac duplexMode true
par Network.mainrouter.eth[0].mac mtu 1500B
attr unit B
par Network.mainrouter.eth[0].mac fcsMode "\"declared\""
attr enum declared,computed
par Network.mainrouter.eth[0].mac stopOperationExtraTime -1s
attr unit s
par Network.mainrouter.eth[0].mac stopOperationTimeout 2s
attr unit s
scalar Network.mainrouter.eth[0].mac "simulated time" 300
scalar Network.mainrouter.eth[0].mac full-duplex 1
scalar Network.mainrouter.eth[0].mac "frames/sec sent" 1.18
scalar Network.mainrouter.eth[0].mac "frames/sec rcvd" 0.31
scalar Network.mainrouter.eth[0].mac "bits/sec sent" 623.04
scalar Network.mainrouter.eth[0].mac "bits/sec rcvd" 163.68
scalar Network.mainrouter.eth[0].mac "rx channel idle (%)" 99.99981648
scalar Network.mainrouter.eth[0].mac "rx channel utilization (%)" 0.00018352
scalar Network.mainrouter.eth[0].mac rxPausePkUnits:count 0
attr interpolationmode none
attr recordingmode count
attr title "pause units received, count"
scalar Network.mainrouter.eth[0].mac rxPausePkUnits:sum 0
attr interpolationmode none
attr recordingmode sum
attr title "pause units received, sum"
scalar Network.mainrouter.eth[0].mac txPausePkUnits:count 0
attr interpolationmode none
attr recordingmode count
attr title "pause units sent, count"
scalar Network.mainrouter.eth[0].mac txPausePkUnits:sum 0
attr interpolationmode none
attr recordingmode sum
attr title "pause units sent, sum"
scalar Network.mainrouter.eth[0].mac rxPkOk:count 93
attr interpolationmode none
attr recordingmode count
attr source rxPkOk
attr title "packets received OK, count"
scalar Network.mainrouter.eth[0].mac rxPkOk:sum(packetBytes) 6138
attr interpolationmode none
attr recordingmode sum(packetBytes)
attr source rxPkOk
attr title "packets received OK, sum(packetBytes)"
scalar Network.mainrouter.eth[0].mac txPk:count 354
attr interpolationmode none
attr recordingmode count
attr source packetSentToLower
attr title "packets transmitted, count"
scalar Network.mainrouter.eth[0].mac txPk:sum(packetBytes) 23364
attr interpolationmode none
attr recordingmode sum(packetBytes)
attr source packetSentToLower
attr title "packets transmitted, sum(packetBytes)"
scalar Network.mainrouter.eth[0].mac packetReceivedFromUpper:count 354
attr interpolationmode none
attr recordingmode count
attr source packetReceivedFromUpper
attr title "packet bytes from higher layer, count"
scalar Network.mainrouter.eth[0].mac packetReceivedFromUpper:sum(packetBytes) 23364
attr interpolationmode none
attr recordingmode sum(packetBytes)
attr source packetReceivedFromUpper
attr title "packet bytes from higher layer, sum(packetBytes)"
scalar Network.mainrouter.eth[0].mac passedUpPk:count 93
attr interpolationmode none
attr recordingmode count
attr source packetSentToUpper
attr title "packets passed to higher layer, count"
scalar Network.mainrouter.eth[0].mac passedUpPk:sum(packetBytes) 6138
attr interpolationmode none
attr recordingmode sum(packetBytes)
attr source packetSentToUpper
attr title "packets passed to higher layer, sum(packetBytes)"
scalar Network.mainrouter.eth[0].mac packetDropIncorrectlyReceived:count 0
attr interpolationmode none
attr recordingmode count
attr source packetDropReasonIsIncorrectlyReceived(packetDropped)
attr title "packet drop: incorrectly received, count"
scalar Network.mainrouter.eth[0].mac packetDropIncorrectlyReceived:sum(packetBytes) 0
attr interpolationmode none
attr recordingmode sum(packetBytes)
attr source packetDropReasonIsIncorrectlyReceived(packetDropped)
attr title "packet drop: incorrectly received, sum(packetBytes)"
scalar Network.mainrouter.eth[0].mac packetDropInterfaceDown:count 0
attr interpolationmode none
attr recordingmode count
attr source packetDropReasonIsInterfaceDown(packetDropped)
attr title "packet drop: interface down, count"
scalar Network.mainrouter.eth[0].mac packetDropInterfaceDown:sum(packetBytes) 0
attr interpolationmode none
[...]
attr title "packet drop: not addressed to us, sum(packetBytes)"
par Network.bunkerhost[11].eth[0] typename "\"inet.linklayer.ethernet.EthernetInterface\""
par Network.bunkerhost[11].eth[0] displayStringTextFormat "\"%a (%i)\\n%m\""
par Network.bunkerhost[11].eth[0] recordPcap false
par Network.bunkerhost[11].eth[0] numPcapRecorders 0
par Network.bunkerhost[11].eth[0] interfaceTableModule "\"Network.bunkerhost[11].interfaceTable\""
par Network.bunkerhost[11].eth[0] protocol "\"ethernetmac\""
par Network.bunkerhost[11].eth[0] address "\"0A-AA-00-00-00-20\""
attr mutable ""
par Network.bunkerhost[11].eth[0] duplexMode true
par Network.bunkerhost[11].eth[0] csmacdSupport false
par Network.bunkerhost[11].eth[0] bitrate 0bps
attr unit bps
par Network.bunkerhost[11].eth[0] fcsMode "\"declared\""
attr enum declared,computed
scalar Network.bunkerhost[11].eth[0] packetDropInterfaceDown:count 0
attr interpolationmode none
attr recordingmode count
attr source packetDropReasonIsInterfaceDown(packetDropped)
attr title "packet drops: interface down, count"
scalar Network.bunkerhost[11].eth[0] packetDropInterfaceDown:sum(packetBytes) 0
attr interpolationmode none
attr recordingmode sum(packetBytes)
attr source packetDropReasonIsInterfaceDown(packetDropped)
attr title "packet drops: interface down, sum(packetBytes)"
scalar Network.bunkerhost[11].eth[0] packetDropNoCarrier:count 0
attr interpolationmode none
attr recordingmode count
attr source packetDropReasonIsNoCarrier(packetDropped)
attr title "packet drops: no carrier, count"
scalar Network.bunkerhost[11].eth[0] packetDropNoCarrier:sum(packetBytes) 0
attr interpolationmode none
attr recordingmode sum(packetBytes)
attr source packetDropReasonIsNoCarrier(packetDropped)
attr title "packet drops: no carrier, sum(packetBytes)"
par Network.bunkerhost[11].ipv4.transportIn.channel typename "\"ned.IdealChannel\""
par Network.bunkerhost[11].ipv4.up.out[0].channel typename "\"ned.IdealChannel\""
par Network.bunkerhost[11].ipv4.lp.out[2].channel typename "\"ned.IdealChannel\""
par Network.bunkerhost[11].ipv4.ifIn.channel typename "\"ned.IdealChannel\""
par Network.bunkerhost[11].ipv4.configurator typename "\"inet.networklayer.configurator.ipv4.Ipv4NodeConfigurator\""
par Network.bunkerhost[11].ipv4.configurator interfaceTableModule "\"Network.bunkerhost[11].interfaceTable\""
par Network.bunkerhost[11].ipv4.configurator routingTableModule "\"Network.bunkerhost[11].ipv4.routingTable\""
par Network.bunkerhost[11].ipv4.configurator networkConfiguratorModule "\"configurator\""
par Network.bunkerhost[11].ipv4.configurator configureRoutingTable true
par Network.bunkerhost[11].ipv4.routingTable typename "\"inet.networklayer.ipv4.Ipv4RoutingTable\""
par Network.bunkerhost[11].ipv4.routingTable interfaceTableModule "\"Network.bunkerhost[11].interfaceTable\""
par Network.bunkerhost[11].ipv4.routingTable routerId "\"auto\""
par Network.bunkerhost[11].ipv4.routingTable netmaskRoutes "\"\""
par Network.bunkerhost[11].ipv4.routingTable forwarding false
par Network.bunkerhost[11].ipv4.routingTable multicastForwarding false
par Network.bunkerhost[11].ipv4.routingTable useAdminDist false
par Network.bunkerhost[11].ipv4.routingTable routingFile "\"\""
par Network.bunkerhost[11].ipv4.natTable typename "\"inet.networklayer.ipv4.Ipv4NatTable\""
par Network.bunkerhost[11].ipv4.natTable networkProtocolModule "\"^.ip\""
par Network.bunkerhost[11].ipv4.natTable config "<config/> at content:1"
par Network.bunkerhost[11].ipv4.up typename "\"inet.common.MessageDispatcher\""
par Network.bunkerhost[11].ipv4.up displayStringTextFormat "\"processed %p pk (%l)\""
par Network.bunkerhost[11].ipv4.up forwardServiceRegistration true
par Network.bunkerhost[11].ipv4.up forwardProtocolRegistration true
par Network.bunkerhost[11].ipv4.igmp typename "\"inet.networklayer.ipv4.Igmpv2\""
par Network.bunkerhost[11].ipv4.igmp interfaceTableModule "\"Network.bunkerhost[11].interfaceTable\""
par Network.bunkerhost[11].ipv4.igmp routingTableModule "\"Network.bunkerhost[11].ipv4.routingTable\""
par Network.bunkerhost[11].ipv4.igmp crcMode "\"declared\""
attr enum declared,computed
par Network.bunkerhost[11].ipv4.igmp enabled true
par Network.bunkerhost[11].ipv4.igmp robustnessVariable 2
par Network.bunkerhost[11].ipv4.igmp queryInterval 125s
attr unit s
par Network.bunkerhost[11].ipv4.igmp queryResponseInterval 10s
attr unit s
par Network.bunkerhost[11].ipv4.igmp groupMembershipInterval 260s
attr unit s
par Network.bunkerhost[11].ipv4.igmp otherQuerierPresentInterval 255s
attr unit s
par Network.bunkerhost[11].ipv4.igmp startupQueryInterval 31.25s
attr unit s
par Network.bunkerhost[11].ipv4.igmp startupQueryCount 2
par Network.bunkerhost[11].ipv4.igmp lastMemberQueryInterval 1s
attr unit s
par Network.bunkerhost[11].ipv4.igmp lastMemberQueryCount 2
par Network.bunkerhost[11].ipv4.igmp unsolicitedReportInterval 10s
attr unit s
par Network.bunkerhost[11].ipv4.icmp typename "\"inet.networklayer.ipv4.Icmp\""
par Network.bunkerhost[11].ipv4.icmp interfaceTableModule "\"Network.bunkerhost[11].interfaceTable\""
par Network.bunkerhost[11].ipv4.icmp routingTableModule "\"Network.bunkerhost[11].ipv4.routingTable\""
par Network.bunkerhost[11].ipv4.icmp crcMode "\"declared\""
attr enum declared,computed
attr mutable ""
par Network.bunkerhost[11].ipv4.icmp quoteLength 8B
attr mutable ""
attr unit B
par Network.bunkerhost[11].ipv4.mp typename "\"inet.common.MessageDispatcher\""
par Network.bunkerhost[11].ipv4.mp displayStringTextFormat "\"processed %p pk (%l)\""
par Network.bunkerhost[11].ipv4.mp forwardServiceRegistration true
par Network.bunkerhost[11].ipv4.mp forwardProtocolRegistration true
par Network.bunkerhost[11].ipv4.ip typename "\"inet.networklayer.ipv4.Ipv4\""
par Network.bunkerhost[11].ipv4.ip interfaceTableModule "\"Network.bunkerhost[11].interfaceTable\""
par Network.bunkerhost[11].ipv4.ip routingTableModule "\"Network.bunkerhost[11].ipv4.routingTable\""
par Network.bunkerhost[11].ipv4.ip arpModule "\"Network.bunkerhost[11].ipv4.arp\""
par Network.bunkerhost[11].ipv4.ip icmpModule "\"Network.bunkerhost[11].ipv4.icmp\""
par Network.bunkerhost[11].ipv4.ip crcMode "\"declared\""
attr enum declared,computed
par Network.bunkerhost[11].ipv4.ip timeToLive 32
par Network.bunkerhost[11].ipv4.ip multicastTimeToLive 32
par Network.bunkerhost[11].ipv4.ip fragmentTimeout 60s
attr unit s
par Network.bunkerhost[11].ipv4.ip limitedBroadcast false
par Network.bunkerhost[11].ipv4.ip directBroadcastInterfaces "\"\""
scalar Network.bunkerhost[11].ipv4.ip packetDropAddressResolutionFailed:count 0
attr interpolationmode none
attr recordingmode count
attr source packetDropReasonIsAddressResolutionFailed(packetDropped)
attr title "packet drop: address resolution failed, count"
scalar Network.bunkerhost[11].ipv4.ip packetDropAddressResolutionFailed:sum(packetBytes) 0
attr interpolationmode none
attr recordingmode sum(packetBytes)
attr source packetDropReasonIsAddressResolutionFailed(packetDropped)
attr title "packet drop: address resolution failed, sum(packetBytes)"
scalar Network.bunkerhost[11].ipv4.ip packetDropHopLimitReached:count 0
attr interpolationmode none
attr recordingmode count
attr source packetDropReasonIsHopLimitReached(packetDropped)
attr title "packet drop: hop limit reached, count"
scalar Network.bunkerhost[11].ipv4.ip packetDropHopLimitReached:sum(packetBytes) 0
attr interpolationmode none
attr recordingmode sum(packetBytes)
attr source packetDropReasonIsHopLimitReached(packetDropped)
attr title "packet drop: hop limit reached, sum(packetBytes)"
scalar Network.bunkerhost[11].ipv4.ip packetDropForwardingDisabled:count 0
attr interpolationmode none
attr recordingmode count
attr source packetDropReasonIsForwardingDisabled(packetDropped)
attr title "packet drop: forwarding disabled, count"
scalar Network.bunkerhost[11].ipv4.ip packetDropForwardingDisabled:sum(packetBytes) 0
attr interpolationmode none
attr recordingmode sum(packetBytes)
attr source packetDropReasonIsForwardingDisabled(packetDropped)
attr title "packet drop: forwarding disabled, sum(packetBytes)"
scalar Network.bunkerhost[11].ipv4.ip packetDropNoInterfaceFound:count 0
attr interpolationmode none
attr recordingmode count
attr source packetDropReasonIsNoInterfaceFound(packetDropped)
attr title "packet drop: no interface found, count"
scalar Network.bunkerhost[11].ipv4.ip packetDropNoInterfaceFound:sum(packetBytes) 0
attr interpolationmode none
attr recordingmode sum(packetBytes)
attr source packetDropReasonIsNoInterfaceFound(packetDropped)
attr title "packet drop: no interface found, sum(packetBytes)"
scalar Network.bunkerhost[11].ipv4.ip packetDropNoRouteFound:count 0
attr interpolationmode none
attr recordingmode count
attr source packetDropReasonIsNoRouteFound(packetDropped)
attr title "packet drop: no route found, count"
scalar Network.bunkerhost[11].ipv4.ip packetDropNoRouteFound:sum(packetBytes) 0
attr interpolationmode none
attr recordingmode sum(packetBytes)
attr source packetDropReasonIsNoRouteFound(packetDropped)
attr title "packet drop: no route found, sum(packetBytes)"
scalar Network.bunkerhost[11].ipv4.ip packetDropUndefined:count 0
attr interpolationmode none
attr recordingmode count
attr source packetDropReasonIsUndefined(packetDropped)
attr title "packet drop: undefined, count"
scalar Network.bunkerhost[11].ipv4.ip packetDropUndefined:sum(packetBytes) 0
attr interpolationmode none
attr recordingmode sum(packetBytes)
attr source packetDropReasonIsUndefined(packetDropped)
attr title "packet drop: undefined, sum(packetBytes)"
par Network.bunkerhost[11].ipv4.arp typename "\"inet.networklayer.arp.ipv4.GlobalArp\""
par Network.bunkerhost[11].ipv4.arp interfaceTableModule "\"Network.bunkerhost[11].interfaceTable\""
par Network.bunkerhost[11].ipv4.arp addressType "\"ipv4\""
attr enum ipv4,ipv6,mac,moduleid,modulepath
par Network.bunkerhost[11].ipv4.lp typename "\"inet.common.MessageDispatcher\""
par Network.bunkerhost[11].ipv4.lp displayStringTextFormat "\"processed %p pk (%l)\""
par Network.bunkerhost[11].ipv4.lp forwardServiceRegistration true
par Network.bunkerhost[11].ipv4.lp forwardProtocolRegistration true
par Network.bunkerhost[11].ipv4 typename "\"inet.networklayer.ipv4.Ipv4NetworkLayer\""
par Network.bunkerhost[11].ipv4 forwarding false
par Network.bunkerhost[11].ipv4 multicastForwarding false
par Network.bunkerhost[11].ipv4 interfaceTableModule "\"Network.bunkerhost[11].interfaceTable\""
par Network.bunkerhost[11].ipv4 displayStringTextFormat "\"%i\""
par Network.bunkerhost[11].nl typename "\"inet.common.MessageDispatcher\""
par Network.bunkerhost[11].nl displayStringTextFormat "\"processed %p pk (%l)\""
par Network.bunkerhost[11].nl forwardServiceRegistration true
par Network.bunkerhost[11].nl forwardProtocolRegistration true
par Network.bunkerhost[11].udp typename "\"inet.transportlayer.udp.Udp\""
par Network.bunkerhost[11].udp interfaceTableModule "\"Network.bunkerhost[11].interfaceTable\""
par Network.bunkerhost[11].udp icmpModule "\"^.ipv4.icmp\""
par Network.bunkerhost[11].udp icmpv6Module "\"^.ipv6.icmpv6\""
par Network.bunkerhost[11].udp crcMode "\"declared\""
attr enum disabled,declared,computed
par Network.bunkerhost[11].udp defaultMulticastLoop true
scalar Network.bunkerhost[11].udp packetReceived:count 2
attr interpolationmode none
attr recordingmode count
attr source packetReceived
attr title "packets received, count"
scalar Network.bunkerhost[11].udp packetReceived:sum(packetBytes) 387
attr interpolationmode none
attr recordingmode sum(packetBytes)
attr source packetReceived
attr title "packets received, sum(packetBytes)"
scalar Network.bunkerhost[11].udp packetSent:count 24
attr interpolationmode none
attr recordingmode count
attr source packetSent
attr title "packets sent, count"
scalar Network.bunkerhost[11].udp packetSent:sum(packetBytes) 1361
attr interpolationmode none
attr recordingmode sum(packetBytes)
attr source packetSent
attr title "packets sent, sum(packetBytes)"
scalar Network.bunkerhost[11].udp passedUpPk:count 2
attr interpolationmode none
attr recordingmode count
attr source packetSentToUpper
attr title "packets passed up, count"
scalar Network.bunkerhost[11].udp droppedPkWrongPort:count 0
attr interpolationmode none
attr recordingmode count
attr source packetDropReasonIsNoPortFound(packetDropped)
attr title "packets dropped (wrong port), count"
scalar Network.bunkerhost[11].udp droppedPkBadChecksum:count 0
attr interpolationmode none
attr recordingmode count
attr source packetDropReasonIsIncorrectlyReceived(packetDropped)
attr title "packets dropped (checksum error), count"
par Network.bunkerhost[11].tcp typename "\"inet.transportlayer.tcp.Tcp\""
par Network.bunkerhost[11].tcp crcMode "\"declared\""
attr enum declared,computed
par Network.bunkerhost[11].tcp advertisedWindow 7504
par Network.bunkerhost[11].tcp delayedAcksEnabled false
par Network.bunkerhost[11].tcp nagleEnabled true
par Network.bunkerhost[11].tcp limitedTransmitEnabled false
par Network.bunkerhost[11].tcp increasedIWEnabled false
par Network.bunkerhost[11].tcp sackSupport false
par Network.bunkerhost[11].tcp windowScalingSupport false
par Network.bunkerhost[11].tcp windowScalingFactor -1
par Network.bunkerhost[11].tcp timestampSupport false
par Network.bunkerhost[11].tcp mss 536
par Network.bunkerhost[11].tcp msl 120s
attr unit s
par Network.bunkerhost[11].tcp tcpAlgorithmClass "\"TcpReno\""
attr enum TcpVegas,TcpWestwood,TcpNewReno,TcpReno,TcpTahoe,TcpNoCongestionControl
par Network.bunkerhost[11].tcp useDataNotification false
par Network.bunkerhost[11].tcp dupthresh 3
par Network.bunkerhost[11].tcp initialSsthresh 4294967295
par Network.bunkerhost[11].tcp stopOperationExtraTime 0s
attr unit s
par Network.bunkerhost[11].tcp stopOperationTimeout 2s
attr unit s
par Network.bunkerhost[11].tcp ecnWillingness false
par Network.bunkerhost[11].tcp dctcpGamma 0.0625
par Network.bunkerhost[11].tn typename "\"inet.common.MessageDispatcher\""
par Network.bunkerhost[11].tn displayStringTextFormat "\"processed %p pk (%l)\""
par Network.bunkerhost[11].tn forwardServiceRegistration true
par Network.bunkerhost[11].tn forwardProtocolRegistration true
par Network.bunkerhost[11].app[0] typename "\"bunker_net_sim.HeartBeatApp\""
par Network.bunkerhost[11].app[0] clockModule "\"\""
par Network.bunkerhost[11].app[0] sendingEnabled true
par Network.bunkerhost[11].app[0] destAddress "\"server\""
par Network.bunkerhost[11].app[0] destPort 4444
par Network.bunkerhost[11].app[0] listeningEnabled false
par Network.bunkerhost[11].app[0] startTime 5s
attr unit s
par Network.bunkerhost[11].app[0] stopTime -1s
attr unit s
par Network.bunkerhost[11].app[0] sendInterval "int(uniform(5s, 10s))"
attr unit s
par Network.bunkerhost[11].app[0] stopOperationExtraTime -1s
attr unit s
par Network.bunkerhost[11].app[0] stopOperationTimeout 2s
attr unit s
scalar Network.bunkerhost[11].app[0] "packets sent" 22
scalar Network.bunkerhost[11].app[0] "packets received" 0
scalar Network.bunkerhost[11].app[0] packetReceived:count 0
attr interpolationmode none
attr recordingmode count
attr source packetReceived
attr title "packets received, count"
scalar Network.bunkerhost[11].app[0] packetReceived:sum(packetBytes) 0
attr interpolationmode none
attr recordingmode sum(packetBytes)
attr source packetReceived
attr title "packets received, sum(packetBytes)"
statistic Network.bunkerhost[11].app[0] rcvdPkLifetime:stats
field count 0
field mean nan
field stddev nan
field min nan
field max nan
field sum 0
field sqrsum 0
attr interpolationmode none
attr recordingmode stats
attr source dataAge(packetReceived)
attr title "received packet lifetime"
attr unit s
scalar Network.bunkerhost[11].app[0] packetSent:count 22
attr interpolationmode none
attr recordingmode count
attr source packetSent
attr title "packets sent, count"
scalar Network.bunkerhost[11].app[0] packetSent:sum(packetBytes) 440
attr interpolationmode none
attr recordingmode sum(packetBytes)
attr source packetSent
attr title "packets sent, sum(packetBytes)"
par Network.bunkerhost[11].app[1] typename "\"bunker_net_sim.ClientApp\""
par Network.bunkerhost[11].app[1] bunker_number 4
par Network.bunkerhost[11].app[1] host_number 4
par Network.bunkerhost[11].app[1] nonExist_host_number 1
par Network.bunkerhost[11].app[1] host_prefix "\"bunkerhost\""
par Network.bunkerhost[11].app[1] clockModule "\"\""
par Network.bunkerhost[11].app[1] sendingEnabled true
par Network.bunkerhost[11].app[1] destAddress "\"server\""
par Network.bunkerhost[11].app[1] destPort 4444
par Network.bunkerhost[11].app[1] listeningEnabled true
par Network.bunkerhost[11].app[1] localPort 5555
par Network.bunkerhost[11].app[1] startTime 9s
attr unit s
par Network.bunkerhost[11].app[1] stopTime -1s
attr unit s
par Network.bunkerhost[11].app[1] sendInterval "int(uniform(6s, 12s))"
attr unit s
par Network.bunkerhost[11].app[1] stopOperationExtraTime -1s
attr unit s
par Network.bunkerhost[11].app[1] stopOperationTimeout 2s
attr unit s
scalar Network.bunkerhost[11].app[1] chunkLength 231
scalar Network.bunkerhost[11].app[1] "packets sent" 2
scalar Network.bunkerhost[11].app[1] "packets received" 2
scalar Network.bunkerhost[11].app[1] packetReceived:count 2
attr interpolationmode none
attr recordingmode count
attr source packetReceived
attr title "packets received, count"
scalar Network.bunkerhost[11].app[1] packetReceived:sum(packetBytes) 371
attr interpolationmode none
attr recordingmode sum(packetBytes)
attr source packetReceived
attr title "packets received, sum(packetBytes)"
statistic Network.bunkerhost[11].app[1] rcvdPkLifetime:stats
field count 2
field mean 0.00023832
field stddev 1.5273506473629e-05
field min 0.00022752
field max 0.00024912
field sum 0.00047664
field sqrsum 1.138261248e-07
attr interpolationmode none
attr recordingmode stats
attr source dataAge(packetReceived)
attr title "received packet lifetime"
attr unit s
scalar Network.bunkerhost[11].app[1] packetSent:count 2
attr interpolationmode none
attr recordingmode count
attr source packetSent
attr title "packets sent, count"
scalar Network.bunkerhost[11].app[1] packetSent:sum(packetBytes) 729
attr interpolationmode none
attr recordingmode sum(packetBytes)
attr source packetSent
attr title "packets sent, sum(packetBytes)"
par Network.bunkerhost[11].at typename "\"inet.common.MessageDispatcher\""
par Network.bunkerhost[11].at displayStringTextFormat "\"processed %p pk (%l)\""
par Network.bunkerhost[11].at forwardServiceRegistration true
par Network.bunkerhost[11].at forwardProtocolRegistration true
par Network.bunkerhost[11] typename "\"inet.node.inet.StandardHost\""
par Network.bunkerhost[11] hasStatus false
par Network.bunkerhost[11] osgModel "\"\""
par Network.bunkerhost[11] osgModelColor "\"\""
par Network.bunkerhost[11] canvasImage "\"\""
par Network.bunkerhost[11] canvasImageColor "\"\""
par Network.bunkerhost[11] recordPcap false
par Network.bunkerhost[11] numPcapRecorders 0
par Network.bunkerhost[11] numLoInterfaces 1
par Network.bunkerhost[11] numWlanInterfaces 0
par Network.bunkerhost[11] numEthInterfaces 0
par Network.bunkerhost[11] numPppInterfaces 0
par Network.bunkerhost[11] numTunInterfaces 0
par Network.bunkerhost[11] numVirtInterfaces 0
par Network.bunkerhost[11] fcsMode "\"declared\""
attr enum declared,computed
par Network.bunkerhost[11] hasIpv4 true
par Network.bunkerhost[11] hasIpv6 false
par Network.bunkerhost[11] hasGn false
par Network.bunkerhost[11] forwarding false
par Network.bunkerhost[11] multicastForwarding false
par Network.bunkerhost[11] hasUdp true
par Network.bunkerhost[11] hasTcp true
par Network.bunkerhost[11] hasSctp false
par Network.bunkerhost[11] numApps 2
par Network typename "\"bunker_net_sim.simulations.Network\""
par Network bunker_number 3
scalar Network bunker_number 3
par Network host_number 4
scalar Network host_number 4
par Network cableLength 20000m
attr unit m
scalar Network cableLength 20000
par Network cableBandwidth 1e+08bps
attr unit bps
scalar Network cableBandwidth 100000000

