file 5254994 1670979851                                         
version 3
run General-0-20221214-02:04:10-43101
attr configname General
attr datetime 20221214-02:04:10
attr datetimef 20221214-020410
attr experiment General
attr inifile omnetpp.ini
attr iterationvars "$bnum=int(uniform(2, 5)), $hnum=int(uniform(2, 5)), $xnum=int(uniform(1, 2))"
attr iterationvarsd bnum=int(uniform(2,_5))/hnum=int(uniform(2,_5))/xnum=int(uniform(1,_2))
attr iterationvarsf bnum=int(uniform(2,_5)),hnum=int(uniform(2,_5)),xnum=int(uniform(1,_2))-
attr measurement "$bnum=int(uniform(2, 5)), $hnum=int(uniform(2, 5)), $xnum=int(uniform(1, 2))"
attr network Network
attr processid 43101
attr repetition 0
attr replication #0
attr resultdir results
attr runnumber 0
attr seedset 0
itervar bnum "int(uniform(2, 5))"
itervar hnum "int(uniform(2, 5))"
itervar xnum "int(uniform(1, 2))"
config image-path ../../../omnetpp-6.0.1/samples/inet4.4/images
config network Network
config sim-time-limit 300s
config output-scalar-file results/scalars.sca
config output-vector-file results/vectors.vec
config seed-0-mt 1
config *.configurator.dumpAddresses true
config *.configurator.dumpTopology true
config *.configurator.dumpLinks true
config *.configurator.dumpRoutes true
config *.configurator.config "xmldoc(\"config.xml\")"
config *.visualizer.interfaceTableVisualizer.displayInterfaceTables true
config *.visualizer.interfaceTableVisualizer.nodeFilter "\"not (*router*)\""
config *.cableBandwidth 10Mbps
config *.cableLength 20km
config *.cableBandwidth.param-record-as-scalar true
config *.cableLength.param-record-as-scalar true
config *.*.ipv4.arp.typename GlobalArp
config *.*.ipv4.routingTable.netmaskRoutes "\"\""
config *.*router.eth[*].queue.typename DropTailQueue
config *.*router.eth[*].queue.packetCapacity 10
config *.server.numApps 1
config *.server.app[0].typename ServerApp
config *.server.app[0].heartbeatThreshold 15
config *.bunker_number "int(uniform(2, 5))"
config *.host_number "int(uniform(2, 5))"
config *.nonExist_host_number "int(uniform(1, 2))"
config *.bunker_number.param-record-as-scalar true
config *.host_number.param-record-as-scalar true
config *.nonExist_host_number.param-record-as-scalar true
config *.bunkerhost[*].numApps 2
config *.bunkerhost[*].app[*].destAddress "\"server\""
config *.bunkerhost[*].app[0].sendInterval "int(uniform(5s, 10s))"
config *.bunkerhost[*].app[1].sendInterval "int(uniform(6s, 12s))"
config *.bunkerhost[*].app[0].typename HeartBeatApp
config *.bunkerhost[*].app[1].typename ClientApp
config *.bunkerhost[*].app[1].bunker_number "int(uniform(2, 5))"
config *.bunkerhost[*].app[1].host_number "int(uniform(2, 5))"
config *.bunkerhost[*].app[1].nonExist_host_number "int(uniform(1, 2))"

vector 0 Network.server.udp passedUpPk:vector(count) ETV
attr interpolationmode none
attr recordingmode vector(count)
attr source packetSentToUpper
attr title "packets passed up, count"
vector 1 Network.server.udp droppedPkWrongPort:vector(count) ETV
attr interpolationmode none
attr recordingmode vector(count)
attr source packetDropReasonIsNoPortFound(packetDropped)
attr title "packets dropped (wrong port), count"
vector 2 Network.server.udp droppedPkBadChecksum:vector(count) ETV
attr interpolationmode none
attr recordingmode vector(count)
attr source packetDropReasonIsIncorrectlyReceived(packetDropped)
attr title "packets dropped (checksum error), count"
vector 3 Network.bunkerhost[0].udp passedUpPk:vector(count) ETV
attr interpolationmode none
attr recordingmode vector(count)
attr source packetSentToUpper
attr title "packets passed up, count"
vector 4 Network.bunkerhost[0].udp droppedPkWrongPort:vector(count) ETV
attr interpolationmode none
attr recordingmode vector(count)
attr source packetDropReasonIsNoPortFound(packetDropped)
attr title "packets dropped (wrong port), count"
vector 5 Network.bunkerhost[0].udp droppedPkBadChecksum:vector(count) ETV
attr interpolationmode none
attr recordingmode vector(count)
attr source packetDropReasonIsIncorrectlyReceived(packetDropped)
attr title "packets dropped (checksum error), count"
vector 6 Network.bunkerhost[1].udp passedUpPk:vector(count) ETV
attr interpolationmode none
attr recordingmode vector(count)
attr source packetSentToUpper
attr title "packets passed up, count"
vector 7 Network.bunkerhost[1].udp droppedPkWrongPort:vector(count) ETV
attr interpolationmode none
attr recordingmode vector(count)
attr source packetDropReasonIsNoPortFound(packetDropped)
attr title "packets dropped (wrong port), count"
vector 8 Network.bunkerhost[1].udp droppedPkBadChecksum:vector(count) ETV
attr interpolationmode none
attr recordingmode vector(count)
attr source packetDropReasonIsIncorrectlyReceived(packetDropped)
attr title "packets dropped (checksum error), count"
vector 9 Network.bunkerhost[2].udp passedUpPk:vector(count) ETV
attr interpolationmode none
attr recordingmode vector(count)
attr source packetSentToUpper
attr title "packets passed up, count"
vector 10 Network.bunkerhost[2].udp droppedPkWrongPort:vector(count) ETV
attr interpolationmode none
attr recordingmode vector(count)
attr source packetDropReasonIsNoPortFound(packetDropped)
attr title "packets dropped (wrong port), count"
vector 11 Network.bunkerhost[2].udp droppedPkBadChecksum:vector(count) ETV
attr interpolationmode none
attr recordingmode vector(count)
attr source packetDropReasonIsIncorrectlyReceived(packetDropped)
attr title "packets dropped (checksum error), count"
vector 12 Network.bunkerhost[3].udp passedUpPk:vector(count) ETV
attr interpolationmode none
attr recordingmode vector(count)
attr source packetSentToUpper
attr title "packets passed up, count"
vector 13 Network.bunkerhost[3].udp droppedPkWrongPort:vector(count) ETV
attr interpolationmode none
attr recordingmode vector(count)
attr source packetDropReasonIsNoPortFound(packetDropped)
attr title "packets dropped (wrong port), count"
vector 14 Network.bunkerhost[3].udp droppedPkBadChecksum:vector(count) ETV
attr interpolationmode none
attr recordingmode vector(count)
attr source packetDropReasonIsIncorrectlyReceived(packetDropped)
attr title "packets dropped (checksum error), count"
vector 15 Network.bunkerhost[4].udp passedUpPk:vector(count) ETV
attr interpolationmode none
attr recordingmode vector(count)
attr source packetSentToUpper
attr title "packets passed up, count"
vector 16 Network.bunkerhost[4].udp droppedPkWrongPort:vector(count) ETV
attr interpolationmode none
attr recordingmode vector(count)
attr source packetDropReasonIsNoPortFound(packetDropped)
attr title "packets dropped (wrong port), count"
vector 17 Network.bunkerhost[4].udp droppedPkBadChecksum:vector(count) ETV
attr interpolationmode none
attr recordingmode vector(count)
attr source packetDropReasonIsIncorrectlyReceived(packetDropped)
attr title "packets dropped (checksum error), count"
vector 18 Network.bunkerhost[5].udp passedUpPk:vector(count) ETV
attr interpolationmode none
attr recordingmode vector(count)
attr source packetSentToUpper
attr title "packets passed up, count"
vector 19 Network.bunkerhost[5].udp droppedPkWrongPort:vector(count) ETV
attr interpolationmode none
attr recordingmode vector(count)
attr source packetDropReasonIsNoPortFound(packetDropped)
attr title "packets dropped (wrong port), count"
vector 20 Network.bunkerhost[5].udp droppedPkBadChecksum:vector(count) ETV
attr interpolationmode none
attr recordingmode vector(count)
attr source packetDropReasonIsIncorrectlyReceived(packetDropped)
attr title "packets dropped (checksum error), count"
vector 21 Network.bunkerhost[6].udp passedUpPk:vector(count) ETV
attr interpolationmode none
attr recordingmode vector(count)
attr source packetSentToUpper
attr title "packets passed up, count"
vector 22 Network.bunkerhost[6].udp droppedPkWrongPort:vector(count) ETV
attr interpolationmode none
attr recordingmode vector(count)
attr source packetDropReasonIsNoPortFound(packetDropped)
attr title "packets dropped (wrong port), count"
vector 23 Network.bunkerhost[6].udp droppedPkBadChecksum:vector(count) ETV
attr interpolationmode none
attr recordingmode vector(count)
attr source packetDropReasonIsIncorrectlyReceived(packetDropped)
attr title "packets dropped (checksum error), count"
vector 24 Network.bunkerhost[7].udp passedUpPk:vector(count) ETV
attr interpolationmode none
attr recordingmode vector(count)
attr source packetSentToUpper
attr title "packets passed up, count"
vector 25 Network.bunkerhost[7].udp droppedPkWrongPort:vector(count) ETV
attr interpolationmode none
attr recordingmode vector(count)
attr source packetDropReasonIsNoPortFound(packetDropped)
attr title "packets dropped (wrong port), count"
vector 26 Network.bunkerhost[7].udp droppedPkBadChecksum:vector(count) ETV
attr interpolationmode none
attr recordingmode vector(count)
attr source packetDropReasonIsIncorrectlyReceived(packetDropped)
attr title "packets dropped (checksum error), count"
vector 27 Network.bunkerhost[8].udp passedUpPk:vector(count) ETV
attr interpolationmode none
attr recordingmode vector(count)
attr source packetSentToUpper
attr title "packets passed up, count"
vector 28 Network.bunkerhost[8].udp droppedPkWrongPort:vector(count) ETV
attr interpolationmode none
attr recordingmode vector(count)
attr source packetDropReasonIsNoPortFound(packetDropped)
attr title "packets dropped (wrong port), count"
vector 29 Network.bunkerhost[8].udp droppedPkBadChecksum:vector(count) ETV
attr interpolationmode none
attr recordingmode vector(count)
attr source packetDropReasonIsIncorrectlyReceived(packetDropped)
attr title "packets dropped (checksum error), count"
vector 30 Network.bunkerhost[9].udp passedUpPk:vector(count) ETV
attr interpolationmode none
attr recordingmode vector(count)
attr source packetSentToUpper
attr title "packets passed up, count"
vector 31 Network.bunkerhost[9].udp droppedPkWrongPort:vector(count) ETV
attr interpolationmode none
attr recordingmode vector(count)
attr source packetDropReasonIsNoPortFound(packetDropped)
attr title "packets dropped (wrong port), count"
vector 32 Network.bunkerhost[9].udp droppedPkBadChecksum:vector(count) ETV
attr interpolationmode none
attr recordingmode vector(count)
attr source packetDropReasonIsIncorrectlyReceived(packetDropped)
attr title "packets dropped (checksum error), count"
vector 33 Network.bunkerhost[10].udp passedUpPk:vector(count) ETV
attr interpolationmode none
attr recordingmode vector(count)
attr source packetSentToUpper
attr title "packets passed up, count"
vector 34 Network.bunkerhost[10].udp droppedPkWrongPort:vector(count) ETV
attr interpolationmode none
attr recordingmode vector(count)
attr source packetDropReasonIsNoPortFound(packetDropped)
attr title "packets dropped (wrong port), count"
vector 35 Network.bunkerhost[10].udp droppedPkBadChecksum:vector(count) ETV
attr interpolationmode none
attr recordingmode vector(count)
attr source packetDropReasonIsIncorrectlyReceived(packetDropped)
attr title "packets dropped (checksum error), count"
vector 36 Network.bunkerhost[11].udp passedUpPk:vector(count) ETV
attr interpolationmode none
attr recordingmode vector(count)
attr source packetSentToUpper
attr title "packets passed up, count"
vector 37 Network.bunkerhost[11].udp droppedPkWrongPort:vector(count) ETV
attr interpolationmode none
attr recordingmode vector(count)
attr source packetDropReasonIsNoPortFound(packetDropped)
attr title "packets dropped (wrong port), count"
vector 38 Network.bunkerhost[11].udp droppedPkBadChecksum:vector(count) ETV
attr interpolationmode none
attr recordingmode vector(count)
attr source packetDropReasonIsIncorrectlyReceived(packetDropped)
attr title "packets dropped (checksum error), count"
vector 39 Network.bunkerhost[2].app[0] throughput:vector ETV
attr recordingmode vector
attr source throughput(packetSent)
attr title throughput
attr unit bps
vector 40 Network.bunkerhost[2].app[0] packetSent:vector(packetBytes) ETV
attr interpolationmode none
attr recordingmode vector(packetBytes)
attr source packetSent
attr title "packets sent, packetBytes"
vector 41 Network.bunkerhost[10].app[0] throughput:vector ETV
attr recordingmode vector
attr source throughput(packetSent)
attr title throughput
attr unit bps
vector 42 Network.bunkerhost[10].app[0] packetSent:vector(packetBytes) ETV
attr interpolationmode none
attr recordingmode vector(packetBytes)
attr source packetSent
attr title "packets sent, packetBytes"
vector 43 Network.bunkerhost[2].udp packetSent:vector(packetBytes) ETV
attr interpolationmode none
attr recordingmode vector(packetBytes)
attr source packetSent
attr title "packets sent, packetBytes"
vector 44 Network.bunkerhost[10].udp packetSent:vector(packetBytes) ETV
attr interpolationmode none
attr recordingmode vector(packetBytes)
attr source packetSent
attr title "packets sent, packetBytes"
vector 45 Network.bunkerhost[2].ethernet encapPk:vector(packetBytes) ETV
attr interpolationmode none
attr recordingmode vector(packetBytes)
attr source encapPk
attr title "packets encapsulated, packetBytes"
vector 46 Network.bunkerhost[10].ethernet encapPk:vector(packetBytes) ETV
attr interpolationmode none
attr recordingmode vector(packetBytes)
attr source encapPk
attr title "packets encapsulated, packetBytes"
vector 47 Network.bunkerhost[2].eth[0].queue incomingPacketLengths:vector ETV
attr interpolationmode none
attr recordingmode vector
attr source packetLength(packetPushStarted)
attr title "incoming packet lengths"
attr unit b
vector 48 Network.bunkerhost[2].eth[0].queue incomingDataRate:vector ETV
attr interpolationmode linear
attr recordingmode vector
attr source throughput(packetPushStarted)
attr title "incoming datarate"
attr unit bps
vector 49 Network.bunkerhost[2].eth[0].queue queueingTime:vector ETV
attr interpolationmode none
attr recordingmode vector
attr source queueingTime(packetPulled)
attr title "queueing times"
attr unit s
vector 50 Network.bunkerhost[2].eth[0].queue outgoingPacketLengths:vector ETV
attr interpolationmode none
attr recordingmode vector
attr source packetLength(packetPulled)
attr title "outgoing packet lengths"
attr unit b
vector 51 Network.bunkerhost[2].eth[0].queue outgoingDataRate:vector ETV
attr interpolationmode linear
attr recordingmode vector
attr source throughput(packetPulled)
attr title "outgoing datarate"
attr unit bps
vector 52 Network.bunkerhost[2].eth[0].mac packetReceivedFromUpper:vector(packetBytes) ETV
attr interpolationmode none
attr recordingmode vector(packetBytes)
attr source packetReceivedFromUpper
attr title "packet bytes from higher layer, packetBytes"
vector 53 Network.bunkerhost[2].eth[0].queue queueLength:vector ETV
attr autoWarmupFilter false
attr interpolationmode sample-hold
attr recordingmode vector
attr source "warmup(atomic(constant0(packetPushEnded) + count(packetPushStarted) - count(packetPulled) - count(packetRemoved) - count(packetDropped)))"
attr title "queue length"
attr unit pk
vector 54 Network.bunkerhost[2].eth[0].queue queueBitLength:vector ETV
attr autoWarmupFilter false
attr interpolationmode sample-hold
attr recordingmode vector
attr source "warmup(atomic(constant0(packetPushEnded) + sum(packetLength(packetPushStarted)) - sum(packetLength(packetPulled)) - sum(packetLength(packetRemoved)) - sum(packetLength(packetDropped))))"
attr title "queue bit length"
attr unit b
vector 55 Network.bunkerhost[10].eth[0].queue incomingPacketLengths:vector ETV
attr interpolationmode none
attr recordingmode vector
attr source packetLength(packetPushStarted)
attr title "incoming packet lengths"
attr unit b
vector 56 Network.bunkerhost[10].eth[0].queue incomingDataRate:vector ETV
attr interpolationmode linear
attr recordingmode vector
attr source throughput(packetPushStarted)
attr title "incoming datarate"
attr unit bps
vector 57 Network.bunkerhost[10].eth[0].queue queueingTime:vector ETV
attr interpolationmode none
attr recordingmode vector
attr source queueingTime(packetPulled)
attr title "queueing times"
attr unit s
vector 58 Network.bunkerhost[10].eth[0].queue outgoingPacketLengths:vector ETV
attr interpolationmode none
attr recordingmode vector
attr source packetLength(packetPulled)
attr title "outgoing packet lengths"
attr unit b
vector 59 Network.bunkerhost[10].eth[0].queue outgoingDataRate:vector ETV
attr interpolationmode linear
attr recordingmode vector
attr source throughput(packetPulled)
attr title "outgoing datarate"
attr unit bps
vector 60 Network.bunkerhost[10].eth[0].mac packetReceivedFromUpper:vector(packetBytes) ETV
attr interpolationmode none
attr recordingmode vector(packetBytes)
attr source packetReceivedFromUpper
attr title "packet bytes from higher layer, packetBytes"
vector 61 Network.bunkerhost[10].eth[0].queue queueLength:vector ETV
attr autoWarmupFilter false
attr interpolationmode sample-hold
attr recordingmode vector
attr source "warmup(atomic(constant0(packetPushEnded) + count(packetPushStarted) - count(packetPulled) - count(packetRemoved) - count(packetDropped)))"
attr title "queue length"
attr unit pk
vector 62 Network.bunkerhost[10].eth[0].queue queueBitLength:vector ETV
attr autoWarmupFilter false
attr interpolationmode sample-hold
attr recordingmode vector
attr source "warmup(atomic(constant0(packetPushEnded) + sum(packetLength(packetPushStarted)) - sum(packetLength(packetPulled)) - sum(packetLength(packetRemoved)) - sum(packetLength(packetDropped))))"
attr title "queue bit length"
attr unit b
vector 63 Network.bunkerhost[2].eth[0].mac txPk:vector(packetBytes) ETV
attr interpolationmode none
attr recordingmode vector(packetBytes)
attr source packetSentToLower
attr title "packets transmitted, packetBytes"
vector 64 Network.bunkerhost[10].eth[0].mac txPk:vector(packetBytes) ETV
attr interpolationmode none
attr recordingmode vector(packetBytes)
attr source packetSentToLower
attr title "packets transmitted, packetBytes"
vector 65 Network.bunkerrouter[0].eth[3].mac rxPkOk:vector(packetBytes) ETV
attr interpolationmode none
attr recordingmode vector(packetBytes)
attr source rxPkOk
attr title "packets received OK, packetBytes"
vector 66 Network.bunkerrouter[0].eth[3].mac passedUpPk:vector(packetBytes) ETV
attr interpolationmode none
attr recordingmode vector(packetBytes)
attr source packetSentToUpper
attr title "packets passed to higher layer, packetBytes"
vector 67 Network.bunkerrouter[2].eth[3].mac rxPkOk:vector(packetBytes) ETV
attr interpolationmode none
attr recordingmode vector(packetBytes)
attr source rxPkOk
attr title "packets received OK, packetBytes"
vector 68 Network.bunkerrouter[2].eth[3].mac passedUpPk:vector(packetBytes) ETV
attr interpolationmode none
attr recordingmode vector(packetBytes)
attr source packetSentToUpper
attr title "packets passed to higher layer, packetBytes"
vector 69 Network.bunkerrouter[0].ethernet decapPk:vector(packetBytes) ETV
attr interpolationmode none
attr recordingmode vector(packetBytes)
attr source decapPk
attr title "packets decapsulated, packetBytes"
vector 70 Network.bunkerrouter[2].ethernet decapPk:vector(packetBytes) ETV
attr interpolationmode none
attr recordingmode vector(packetBytes)
attr source decapPk
attr title "packets decapsulated, packetBytes"
vector 71 Network.bunkerrouter[0].ethernet encapPk:vector(packetBytes) ETV
attr interpolationmode none
attr recordingmode vector(packetBytes)
attr source encapPk
attr title "packets encapsulated, packetBytes"
vector 72 Network.bunkerrouter[2].ethernet encapPk:vector(packetBytes) ETV
attr interpolationmode none
attr recordingmode vector(packetBytes)
attr source encapPk
attr title "packets encapsulated, packetBytes"
vector 73 Network.bunkerrouter[0].eth[0].queue incomingPacketLengths:vector ETV
attr interpolationmode none
attr recordingmode vector
attr source packetLength(packetPushStarted)
attr title "incoming packet lengths"
attr unit b
vector 74 Network.bunkerrouter[0].eth[0].queue incomingDataRate:vector ETV
attr interpolationmode linear
attr recordingmode vector
attr source throughput(packetPushStarted)
attr title "incoming datarate"
attr unit bps
vector 75 Network.bunkerrouter[0].eth[0].queue queueingTime:vector ETV
attr interpolationmode none
attr recordingmode vector
attr source queueingTime(packetPulled)
attr title "queueing times"
attr unit s
vector 76 Network.bunkerrouter[0].eth[0].queue outgoingPacketLengths:vector ETV
attr interpolationmode none
attr recordingmode vector
attr source packetLength(packetPulled)
attr title "outgoing packet lengths"
attr unit b
vector 77 Network.bunkerrouter[0].eth[0].queue outgoingDataRate:vector ETV
attr interpolationmode linear
attr recordingmode vector
attr source throughput(packetPulled)
attr title "outgoing datarate"
attr unit bps
vector 78 Network.bunkerrouter[0].eth[0].mac packetReceivedFromUpper:vector(packetBytes) ETV
attr interpolationmode none
attr recordingmode vector(packetBytes)
attr source packetReceivedFromUpper
attr title "packet bytes from higher layer, packetBytes"
vector 79 Network.bunkerrouter[0].eth[0].queue queueLength:vector ETV
attr autoWarmupFilter false
attr interpolationmode sample-hold
attr recordingmode vector
attr source "warmup(atomic(constant0(packetPushEnded) + count(packetPushStarted) - count(packetPulled) - count(packetRemoved) - count(packetDropped)))"
attr title "queue length"
attr unit pk
vector 80 Network.bunkerrouter[0].eth[0].queue queueBitLength:vector ETV
attr autoWarmupFilter false
attr interpolationmode sample-hold
attr recordingmode vector
attr source "warmup(atomic(constant0(packetPushEnded) + sum(packetLength(packetPushStarted)) - sum(packetLength(packetPulled)) - sum(packetLength(packetRemoved)) - sum(packetLength(packetDropped))))"
attr title "queue bit length"
attr unit b
vector 81 Network.bunkerrouter[2].eth[0].queue incomingPacketLengths:vector ETV
attr interpolationmode none
attr recordingmode vector
attr source packetLength(packetPushStarted)
attr title "incoming packet lengths"
attr unit b
vector 82 Network.bunkerrouter[2].eth[0].queue incomingDataRate:vector ETV
attr interpolationmode linear
attr recordingmode vector
attr source throughput(packetPushStarted)
attr title "incoming datarate"
attr unit bps
vector 83 Network.bunkerrouter[2].eth[0].queue queueingTime:vector ETV
attr interpolationmode none
attr recordingmode vector
attr source queueingTime(packetPulled)
attr title "queueing times"
attr unit s
vector 84 Network.bunkerrouter[2].eth[0].queue outgoingPacketLengths:vector ETV
attr interpolationmode none
attr recordingmode vector
attr source packetLength(packetPulled)
attr title "outgoing packet lengths"
attr unit b
vector 85 Network.bunkerrouter[2].eth[0].queue outgoingDataRate:vector ETV
attr interpolationmode linear
attr recordingmode vector
attr source throughput(packetPulled)
attr title "outgoing datarate"
attr unit bps
vector 86 Network.bunkerrouter[2].eth[0].mac packetReceivedFromUpper:vector(packetBytes) ETV
attr interpolationmode none
attr recordingmode vector(packetBytes)
attr source packetReceivedFromUpper
attr title "packet bytes from higher layer, packetBytes"
vector 87 Network.bunkerrouter[2].eth[0].queue queueLength:vector ETV
attr autoWarmupFilter false
attr interpolationmode sample-hold
attr recordingmode vector
attr source "warmup(atomic(constant0(packetPushEnded) + count(packetPushStarted) - count(packetPulled) - count(packetRemoved) - count(packetDropped)))"
attr title "queue length"
attr unit pk
vector 88 Network.bunkerrouter[2].eth[0].queue queueBitLength:vector ETV
attr autoWarmupFilter false
attr interpolationmode sample-hold
attr recordingmode vector
attr source "warmup(atomic(constant0(packetPushEnded) + sum(packetLength(packetPushStarted)) - sum(packetLength(packetPulled)) - sum(packetLength(packetRemoved)) - sum(packetLength(packetDropped))))"
attr title "queue bit length"
attr unit b
vector 89 Network.bunkerrouter[0].eth[0].mac txPk:vector(packetBytes) ETV
attr interpolationmode none
attr recordingmode vector(packetBytes)
attr source packetSentToLower
attr title "packets transmitted, packetBytes"
vector 90 Network.bunkerrouter[2].eth[0].mac txPk:vector(packetBytes) ETV
attr interpolationmode none
attr recordingmode vector(packetBytes)
attr source packetSentToLower
attr title "packets transmitted, packetBytes"
vector 91 Network.mainrouter.eth[1].mac rxPkOk:vector(packetBytes) ETV
attr interpolationmode none
attr recordingmode vector(packetBytes)
attr source rxPkOk
attr title "packets received OK, packetBytes"
vector 92 Network.mainrouter.eth[1].mac passedUpPk:vector(packetBytes) ETV
attr interpolationmode none
attr recordingmode vector(packetBytes)
attr source packetSentToUpper
attr title "packets passed to higher layer, packetBytes"
vector 93 Network.mainrouter.eth[3].mac rxPkOk:vector(packetBytes) ETV
attr interpolationmode none
attr recordingmode vector(packetBytes)
attr source rxPkOk
attr title "packets received OK, packetBytes"
vector 94 Network.mainrouter.eth[3].mac passedUpPk:vector(packetBytes) ETV
attr interpolationmode none
attr recordingmode vector(packetBytes)
attr source packetSentToUpper
attr title "packets passed to higher layer, packetBytes"
vector 95 Network.mainrouter.ethernet decapPk:vector(packetBytes) ETV
attr interpolationmode none
attr recordingmode vector(packetBytes)
attr source decapPk
attr title "packets decapsulated, packetBytes"
vector 96 Network.mainrouter.ethernet encapPk:vector(packetBytes) ETV
attr interpolationmode none
attr recordingmode vector(packetBytes)
attr source encapPk
attr title "packets encapsulated, packetBytes"
vector 97 Network.mainrouter.eth[0].queue incomingPacketLengths:vector ETV
attr interpolationmode none
attr recordingmode vector
attr source packetLength(packetPushStarted)
attr title "incoming packet lengths"
attr unit b
vector 98 Network.mainrouter.eth[0].queue incomingDataRate:vector ETV
attr interpolationmode linear
attr recordingmode vector
attr source throughput(packetPushStarted)
attr title "incoming datarate"
attr unit bps
vector 99 Network.mainrouter.eth[0].queue queueingTime:vector ETV
attr interpolationmode none
attr recordingmode vector
attr source queueingTime(packetPulled)
attr title "queueing times"
attr unit s
vector 100 Network.mainrouter.eth[0].queue outgoingPacketLengths:vector ETV
attr interpolationmode none
attr recordingmode vector
attr source packetLength(packetPulled)
attr title "outgoing packet lengths"
attr unit b
vector 101 Network.mainrouter.eth[0].queue outgoingDataRate:vector ETV
attr interpolationmode linear
attr recordingmode vector
attr source throughput(packetPulled)
attr title "outgoing datarate"
attr unit bps
vector 102 Network.mainrouter.eth[0].mac packetReceivedFromUpper:vector(packetBytes) ETV
attr interpolationmode none
attr recordingmode vector(packetBytes)
attr source packetReceivedFromUpper
attr title "packet bytes from higher layer, packetBytes"
vector 103 Network.mainrouter.eth[0].queue queueLength:vector ETV
attr autoWarmupFilter false
attr interpolationmode sample-hold
attr recordingmode vector
attr source "warmup(atomic(constant0(packetPushEnded) + count(packetPushStarted) - count(packetPulled) - count(packetRemoved) - count(packetDropped)))"
attr title "queue length"
attr unit pk
vector 104 Network.mainrouter.eth[0].queue queueBitLength:vector ETV
attr autoWarmupFilter false
attr interpolationmode sample-hold
attr recordingmode vector
attr source "warmup(atomic(constant0(packetPushEnded) + sum(packetLength(packetPushStarted)) - sum(packetLength(packetPulled)) - sum(packetLength(packetRemoved)) - sum(packetLength(packetDropped))))"
attr title "queue bit length"
attr unit b
vector 105 Network.mainrouter.eth[0].mac txPk:vector(packetBytes) ETV
attr interpolationmode none
attr recordingmode vector(packetBytes)
attr source packetSentToLower
attr title "packets transmitted, packetBytes"
vector 106 Network.server.eth[0].mac rxPkOk:vector(packetBytes) ETV
attr interpolationmode none
attr recordingmode vector(packetBytes)
attr source rxPkOk
attr title "packets received OK, packetBytes"
vector 107 Network.server.eth[0].mac passedUpPk:vector(packetBytes) ETV
attr interpolationmode none
attr recordingmode vector(packetBytes)
attr source packetSentToUpper
attr title "packets passed to higher layer, packetBytes"
vector 108 Network.server.ethernet decapPk:vector(packetBytes) ETV
attr interpolationmode none
attr recordingmode vector(packetBytes)
attr source decapPk
attr title "packets decapsulated, packetBytes"
vector 109 Network.server.udp packetReceived:vector(packetBytes) ETV
attr interpolationmode none
attr recordingmode vector(packetBytes)
attr source packetReceived
attr title "packets received, packetBytes"
vector 110 Network.server.app[0] endtoenddelay:vector ETV
attr interpolationmode linear
attr recordingmode vector
attr source endtoenddelay
attr title "End-to-end Delay"
vector 111 Network.server.app[0] packetReceived:vector(packetBytes) ETV
attr interpolationmode none
attr recordingmode vector(packetBytes)
attr source packetReceived
attr title "packets received, packetBytes"
vector 112 Network.server.app[0] rcvdPkLifetime:vector ETV
attr interpolationmode none
attr recordingmode vector
attr source dataAge(packetReceived)
attr title "received packet lifetime"
attr unit s
vector 113 Network.bunkerhost[6].app[1] throughput:vector ETV
attr recordingmode vector
attr source throughput(packetSent)
attr title throughput
attr unit bps
vector 114 Network.bunkerhost[6].app[1] packetSent:vector(packetBytes) ETV
attr interpolationmode none
attr recordingmode vector(packetBytes)
attr source packetSent
attr title "packets sent, packetBytes"
vector 115 Network.bunkerhost[6].udp packetSent:vector(packetBytes) ETV
attr interpolationmode none
attr recordingmode vector(packetBytes)
attr source packetSent
attr title "packets sent, packetBytes"
vector 116 Network.bunkerhost[6].ethernet encapPk:vector(packetBytes) ETV
attr interpolationmode none
attr recordingmode vector(packetBytes)
attr source encapPk
attr title "packets encapsulated, packetBytes"
vector 117 Network.bunkerhost[6].eth[0].queue incomingPacketLengths:vector ETV
attr interpolationmode none
attr recordingmode vector
attr source packetLength(packetPushStarted)
attr title "incoming packet lengths"
attr unit b
vector 118 Network.bunkerhost[6].eth[0].queue incomingDataRate:vector ETV
attr interpolationmode linear
attr recordingmode vector
attr source throughput(packetPushStarted)
attr title "incoming datarate"
attr unit bps
vector 119 Network.bunkerhost[6].eth[0].queue queueingTime:vector ETV
attr interpolationmode none
attr recordingmode vector
attr source queueingTime(packetPulled)
attr title "queueing times"
attr unit s
vector 120 Network.bunkerhost[6].eth[0].queue outgoingPacketLengths:vector ETV
attr interpolationmode none
attr recordingmode vector
attr source packetLength(packetPulled)
attr title "outgoing packet lengths"
attr unit b
vector 121 Network.bunkerhost[6].eth[0].queue outgoingDataRate:vector ETV
attr interpolationmode linear
attr recordingmode vector
attr source throughput(packetPulled)
attr title "outgoing datarate"
attr unit bps
vector 122 Network.bunkerhost[6].eth[0].mac packetReceivedFromUpper:vector(packetBytes) ETV
attr interpolationmode none
attr recordingmode vector(packetBytes)
attr source packetReceivedFromUpper
attr title "packet bytes from higher layer, packetBytes"
vector 123 Network.bunkerhost[6].eth[0].queue queueLength:vector ETV
attr autoWarmupFilter false
attr interpolationmode sample-hold
attr recordingmode vector
attr source "warmup(atomic(constant0(packetPushEnded) + count(packetPushStarted) - count(packetPulled) - count(packetRemoved) - count(packetDropped)))"
attr title "queue length"
attr unit pk
vector 124 Network.bunkerhost[6].eth[0].queue queueBitLength:vector ETV
attr autoWarmupFilter false
attr interpolationmode sample-hold
attr recordingmode vector
attr source "warmup(atomic(constant0(packetPushEnded) + sum(packetLength(packetPushStarted)) - sum(packetLength(packetPulled)) - sum(packetLength(packetRemoved)) - sum(packetLength(packetDropped))))"
attr title "queue bit length"
attr unit b
vector 125 Network.bunkerhost[6].eth[0].mac txPk:vector(packetBytes) ETV
attr interpolationmode none
attr recordingmode vector(packetBytes)
attr source packetSentToLower
attr title "packets transmitted, packetBytes"
vector 126 Network.bunkerrouter[1].eth[3].mac rxPkOk:vector(packetBytes) ETV
attr interpolationmode none
attr recordingmode vector(packetBytes)
attr source rxPkOk
attr title "packets received OK, packetBytes"
vector 127 Network.bunkerrouter[1].eth[3].mac passedUpPk:vector(packetBytes) ETV
attr interpolationmode none
attr recordingmode vector(packetBytes)
attr source packetSentToUpper
attr title "packets passed to higher layer, packetBytes"
vector 128 Network.bunkerrouter[1].ethernet decapPk:vector(packetBytes) ETV
attr interpolationmode none
attr recordingmode vector(packetBytes)
attr source decapPk
attr title "packets decapsulated, packetBytes"
vector 129 Network.bunkerrouter[1].ethernet encapPk:vector(packetBytes) ETV
attr interpolationmode none
attr recordingmode vector(packetBytes)
attr source encapPk
attr title "packets encapsulated, packetBytes"
vector 130 Network.bunkerrouter[1].eth[0].queue incomingPacketLengths:vector ETV
attr interpolationmode none
attr recordingmode vector
attr source packetLength(packetPushStarted)
attr title "incoming packet lengths"
attr unit b
vector 131 Network.bunkerrouter[1].eth[0].queue incomingDataRate:vector ETV
attr interpolationmode linear
attr recordingmode vector
attr source throughput(packetPushStarted)
attr title "incoming datarate"
attr unit bps
vector 132 Network.bunkerrouter[1].eth[0].queue queueingTime:vector ETV
attr interpolationmode none
attr recordingmode vector
attr source queueingTime(packetPulled)
attr title "queueing times"
attr unit s
vector 133 Network.bunkerrouter[1].eth[0].queue outgoingPacketLengths:vector ETV
attr interpolationmode none
attr recordingmode vector
attr source packetLength(packetPulled)
attr title "outgoing packet lengths"
attr unit b
vector 134 Network.bunkerrouter[1].eth[0].queue outgoingDataRate:vector ETV
attr interpolationmode linear
attr recordingmode vector
attr source throughput(packetPulled)
attr title "outgoing datarate"
attr unit bps
vector 135 Network.bunkerrouter[1].eth[0].mac packetReceivedFromUpper:vector(packetBytes) ETV
attr interpolationmode none
attr recordingmode vector(packetBytes)
attr source packetReceivedFromUpper
attr title "packet bytes from higher layer, packetBytes"
vector 136 Network.bunkerrouter[1].eth[0].queue queueLength:vector ETV
attr autoWarmupFilter false
attr interpolationmode sample-hold
attr recordingmode vector
attr source "warmup(atomic(constant0(packetPushEnded) + count(packetPushStarted) - count(packetPulled) - count(packetRemoved) - count(packetDropped)))"
attr title "queue length"
attr unit pk
vector 137 Network.bunkerrouter[1].eth[0].queue queueBitLength:vector ETV
attr autoWarmupFilter false
attr interpolationmode sample-hold
attr recordingmode vector
attr source "warmup(atomic(constant0(packetPushEnded) + sum(packetLength(packetPushStarted)) - sum(packetLength(packetPulled)) - sum(packetLength(packetRemoved)) - sum(packetLength(packetDropped))))"
attr title "queue bit length"
attr unit b
vector 138 Network.bunkerrouter[1].eth[0].mac txPk:vector(packetBytes) ETV
attr interpolationmode none
attr recordingmode vector(packetBytes)
attr source packetSentToLower
attr title "packets transmitted, packetBytes"
vector 139 Network.mainrouter.eth[2].mac rxPkOk:vector(packetBytes) ETV
attr interpolationmode none
attr recordingmode vector(packetBytes)
attr source rxPkOk
attr title "packets received OK, packetBytes"
vector 140 Network.mainrouter.eth[2].mac passedUpPk:vector(packetBytes) ETV
attr interpolationmode none
attr recordingmode vector(packetBytes)
attr source packetSentToUpper
attr title "packets passed to higher layer, packetBytes"
vector 141 Network.server.app[0] unsuccessfulLookup:vector ETV
attr interpolationmode linear
attr recordingmode vector
attr source unsuccessfulLookup
attr title "Unsuccessful Lookup Count"
vector 142 Network.server.app[0] throughput:vector ETV
attr recordingmode vector
attr source throughput(packetSent)
attr title throughput
attr unit bps
vector 143 Network.server.app[0] packetSent:vector(packetBytes) ETV
attr interpolationmode none
attr recordingmode vector(packetBytes)
attr source packetSent
attr title "packets sent, packetBytes"
vector 144 Network.server.udp packetSent:vector(packetBytes) ETV
attr interpolationmode none
attr recordingmode vector(packetBytes)
attr source packetSent
attr title "packets sent, packetBytes"
vector 145 Network.server.ethernet encapPk:vector(packetBytes) ETV
attr interpolationmode none
attr recordingmode vector(packetBytes)
attr source encapPk
attr title "packets encapsulated, packetBytes"
vector 146 Network.server.eth[0].queue incomingPacketLengths:vector ETV
attr interpolationmode none
attr recordingmode vector
attr source packetLength(packetPushStarted)
attr title "incoming packet lengths"
attr unit b
vector 147 Network.server.eth[0].queue incomingDataRate:vector ETV
attr interpolationmode linear
attr recordingmode vector
attr source throughput(packetPushStarted)
attr title "incoming datarate"
attr unit bps
vector 148 Network.server.eth[0].queue queueingTime:vector ETV
attr interpolationmode none
attr recordingmode vector
attr source queueingTime(packetPulled)
attr title "queueing times"
attr unit s
vector 149 Network.server.eth[0].queue outgoingPacketLengths:vector ETV
attr interpolationmode none
attr recordingmode vector
attr source packetLength(packetPulled)
attr title "outgoing packet lengths"
attr unit b
vector 150 Network.server.eth[0].queue outgoingDataRate:vector ETV
attr interpolationmode linear
attr recordingmode vector
attr source throughput(packetPulled)
attr title "outgoing datarate"
attr unit bps
vector 151 Network.server.eth[0].mac packetReceivedFromUpper:vector(packetBytes) ETV
attr interpolationmode none
attr recordingmode vector(packetBytes)
attr source packetReceivedFromUpper
attr title "packet bytes from higher layer, packetBytes"
vector 152 Network.server.eth[0].queue queueLength:vector ETV
attr autoWarmupFilter false
attr interpolationmode sample-hold
attr recordingmode vector
attr source "warmup(atomic(constant0(packetPushEnded) + count(packetPushStarted) - count(packetPulled) - count(packetRemoved) - count(packetDropped)))"
attr title "queue length"
attr unit pk
vector 153 Network.server.eth[0].queue queueBitLength:vector ETV
attr autoWarmupFilter false
attr interpolationmode sample-hold
attr recordingmode vector
attr source "warmup(atomic(constant0(packetPushEnded) + sum(packetLength(packetPushStarted)) - sum(packetLength(packetPulled)) - sum(packetLength(packetRemoved)) - sum(packetLength(packetDropped))))"
attr title "queue bit length"
attr unit b
vector 154 Network.server.eth[0].mac txPk:vector(packetBytes) ETV
attr interpolationmode none
attr recordingmode vector(packetBytes)
attr source packetSentToLower
attr title "packets transmitted, packetBytes"
vector 155 Network.mainrouter.eth[0].mac rxPkOk:vector(packetBytes) ETV
attr interpolationmode none
attr recordingmode vector(packetBytes)
attr source rxPkOk
attr title "packets received OK, packetBytes"
vector 156 Network.mainrouter.eth[0].mac passedUpPk:vector(packetBytes) ETV
attr interpolationmode none
attr recordingmode vector(packetBytes)
attr source packetSentToUpper
attr title "packets passed to higher layer, packetBytes"
vector 157 Network.mainrouter.eth[2].queue incomingPacketLengths:vector ETV
attr interpolationmode none
attr recordingmode vector
attr source packetLength(packetPushStarted)
attr title "incoming packet lengths"
attr unit b
vector 158 Network.mainrouter.eth[2].queue incomingDataRate:vector ETV
attr interpolationmode linear
attr recordingmode vector
attr source throughput(packetPushStarted)
attr title "incoming datarate"
attr unit bps
vector 159 Network.mainrouter.eth[2].queue queueingTime:vector ETV
attr interpolationmode none
attr recordingmode vector
attr source queueingTime(packetPulled)
attr title "queueing times"
attr unit s
vector 160 Network.mainrouter.eth[2].queue outgoingPacketLengths:vector ETV
attr interpolationmode none
attr recordingmode vector
attr source packetLength(packetPulled)
attr title "outgoing packet lengths"
attr unit b
vector 161 Network.mainrouter.eth[2].queue outgoingDataRate:vector ETV
attr interpolationmode linear
attr recordingmode vector
attr source throughput(packetPulled)
attr title "outgoing datarate"
attr unit bps
vector 162 Network.mainrouter.eth[2].mac packetReceivedFromUpper:vector(packetBytes) ETV
attr interpolationmode none
attr recordingmode vector(packetBytes)
attr source packetReceivedFromUpper
attr title "packet bytes from higher layer, packetBytes"
vector 163 Network.mainrouter.eth[2].queue queueLength:vector ETV
attr autoWarmupFilter false
attr interpolationmode sample-hold
attr recordingmode vector
attr source "warmup(atomic(constant0(packetPushEnded) + count(packetPushStarted) - count(packetPulled) - count(packetRemoved) - count(packetDropped)))"
attr title "queue length"
attr unit pk
vector 164 Network.mainrouter.eth[2].queue queueBitLength:vector ETV
attr autoWarmupFilter false
attr interpolationmode sample-hold
attr recordingmode vector
attr source "warmup(atomic(constant0(packetPushEnded) + sum(packetLength(packetPushStarted)) - sum(packetLength(packetPulled)) - sum(packetLength(packetRemoved)) - sum(packetLength(packetDropped))))"
attr title "queue bit length"
attr unit b
vector 165 Network.mainrouter.eth[2].mac txPk:vector(packetBytes) ETV
attr interpolationmode none
attr recordingmode vector(packetBytes)
attr source packetSentToLower
attr title "packets transmitted, packetBytes"
vector 166 Network.bunkerrouter[1].eth[0].mac rxPkOk:vector(packetBytes) ETV
attr interpolationmode none
attr recordingmode vector(packetBytes)
attr source rxPkOk
attr title "packets received OK, packetBytes"
vector 167 Network.bunkerrouter[1].eth[0].mac passedUpPk:vector(packetBytes) ETV
attr interpolationmode none
attr recordingmode vector(packetBytes)
attr source packetSentToUpper
attr title "packets passed to higher layer, packetBytes"
vector 168 Network.bunkerrouter[1].eth[3].queue incomingPacketLengths:vector ETV
attr interpolationmode none
attr recordingmode vector
attr source packetLength(packetPushStarted)
attr title "incoming packet lengths"
attr unit b
vector 169 Network.bunkerrouter[1].eth[3].queue incomingDataRate:vector ETV
attr interpolationmode linear
attr recordingmode vector
attr source throughput(packetPushStarted)
attr title "incoming datarate"
attr unit bps
vector 170 Network.bunkerrouter[1].eth[3].queue queueingTime:vector ETV
attr interpolationmode none
attr recordingmode vector
attr source queueingTime(packetPulled)
attr title "queueing times"
attr unit s
vector 171 Network.bunkerrouter[1].eth[3].queue outgoingPacketLengths:vector ETV
attr interpolationmode none
attr recordingmode vector
attr source packetLength(packetPulled)
attr title "outgoing packet lengths"
attr unit b
vector 172 Network.bunkerrouter[1].eth[3].queue outgoingDataRate:vector ETV
attr interpolationmode linear
attr recordingmode vector
attr source throughput(packetPulled)
attr title "outgoing datarate"
attr unit bps
vector 173 Network.bunkerrouter[1].eth[3].mac packetReceivedFromUpper:vector(packetBytes) ETV
attr interpolationmode none
attr recordingmode vector(packetBytes)
attr source packetReceivedFromUpper
attr title "packet bytes from higher layer, packetBytes"
vector 174 Network.bunkerrouter[1].eth[3].queue queueLength:vector ETV
attr autoWarmupFilter false
attr interpolationmode sample-hold
attr recordingmode vector
attr source "warmup(atomic(constant0(packetPushEnded) + count(packetPushStarted) - count(packetPulled) - count(packetRemoved) - count(packetDropped)))"
attr title "queue length"
attr unit pk
vector 175 Network.bunkerrouter[1].eth[3].queue queueBitLength:vector ETV
attr autoWarmupFilter false
attr interpolationmode sample-hold
attr recordingmode vector
attr source "warmup(atomic(constant0(packetPushEnded) + sum(packetLength(packetPushStarted)) - sum(packetLength(packetPulled)) - sum(packetLength(packetRemoved)) - sum(packetLength(packetDropped))))"
attr title "queue bit length"
attr unit b
vector 176 Network.bunkerrouter[1].eth[3].mac txPk:vector(packetBytes) ETV
attr interpolationmode none
attr recordingmode vector(packetBytes)
attr source packetSentToLower
attr title "packets transmitted, packetBytes"
vector 177 Network.bunkerhost[6].eth[0].mac rxPkOk:vector(packetBytes) ETV
attr interpolationmode none
attr recordingmode vector(packetBytes)
attr source rxPkOk
attr title "packets received OK, packetBytes"
vector 178 Network.bunkerhost[6].eth[0].mac passedUpPk:vector(packetBytes) ETV
attr interpolationmode none
attr recordingmode vector(packetBytes)
attr source packetSentToUpper
attr title "packets passed to higher layer, packetBytes"
vector 179 Network.bunkerhost[6].ethernet decapPk:vector(packetBytes) ETV
attr interpolationmode none
attr recordingmode vector(packetBytes)
attr source decapPk
attr title "packets decapsulated, packetBytes"
vector 180 Network.bunkerhost[6].udp packetReceived:vector(packetBytes) ETV
attr interpolationmode none
attr recordingmode vector(packetBytes)
attr source packetReceived
attr title "packets received, packetBytes"
vector 181 Network.bunkerhost[6].app[1] endtoenddelay:vector ETV
attr interpolationmode linear
attr recordingmode vector
attr source endtoenddelay
attr title "End-to-end Delay"
vector 182 Network.bunkerhost[6].app[1] packetReceived:vector(packetBytes) ETV
attr interpolationmode none
attr recordingmode vector(packetBytes)
attr source packetReceived
attr title "packets received, packetBytes"
vector 183 Network.bunkerhost[0].app[1] throughput:vector ETV
attr recordingmode vector
attr source throughput(packetSent)
attr title throughput
attr unit bps
vector 184 Network.bunkerhost[0].app[1] packetSent:vector(packetBytes) ETV
attr interpolationmode none
attr recordingmode vector(packetBytes)
attr source packetSent
attr title "packets sent, packetBytes"
vector 185 Network.bunkerhost[3].app[1] throughput:vector ETV
attr recordingmode vector
attr source throughput(packetSent)
attr title throughput
attr unit bps
vector 186 Network.bunkerhost[3].app[1] packetSent:vector(packetBytes) ETV
attr interpolationmode none
attr recordingmode vector(packetBytes)
attr source packetSent
attr title "packets sent, packetBytes"
vector 187 Network.bunkerhost[6].app[0] throughput:vector ETV
attr recordingmode vector
attr source throughput(packetSent)
attr title throughput
attr unit bps
vector 188 Network.bunkerhost[6].app[0] packetSent:vector(packetBytes) ETV
attr interpolationmode none
attr recordingmode vector(packetBytes)
attr source packetSent
attr title "packets sent, packetBytes"
vector 189 Network.bunkerhost[10].app[1] throughput:vector ETV
attr recordingmode vector
attr source throughput(packetSent)
attr title throughput
attr unit bps
vector 190 Network.bunkerhost[10].app[1] packetSent:vector(packetBytes) ETV
attr interpolationmode none
attr recordingmode vector(packetBytes)
attr source packetSent
attr title "packets sent, packetBytes"
vector 191 Network.bunkerhost[0].udp packetSent:vector(packetBytes) ETV
attr interpolationmode none
attr recordingmode vector(packetBytes)
attr source packetSent
attr title "packets sent, packetBytes"
vector 192 Network.bunkerhost[3].udp packetSent:vector(packetBytes) ETV
attr interpolationmode none
attr recordingmode vector(packetBytes)
attr source packetSent
attr title "packets sent, packetBytes"
vector 193 Network.bunkerhost[0].ethernet encapPk:vector(packetBytes) ETV
attr interpolationmode none
attr recordingmode vector(packetBytes)
attr source encapPk
attr title "packets encapsulated, packetBytes"
vector 194 Network.bunkerhost[3].ethernet encapPk:vector(packetBytes) ETV
attr interpolationmode none
attr recordingmode vector(packetBytes)
attr source encapPk
attr title "packets encapsulated, packetBytes"
vector 195 Network.bunkerhost[0].eth[0].queue incomingPacketLengths:vector ETV
attr interpolationmode none
attr recordingmode vector
attr source packetLength(packetPushStarted)
attr title "incoming packet lengths"
attr unit b
vector 196 Network.bunkerhost[0].eth[0].queue incomingDataRate:vector ETV
attr interpolationmode linear
attr recordingmode vector
attr source throughput(packetPushStarted)
attr title "incoming datarate"
attr unit bps
vector 197 Network.bunkerhost[0].eth[0].queue queueingTime:vector ETV
attr interpolationmode none
attr recordingmode vector
attr source queueingTime(packetPulled)
attr title "queueing times"
attr unit s
vector 198 Network.bunkerhost[0].eth[0].queue outgoingPacketLengths:vector ETV
attr interpolationmode none
attr recordingmode vector
attr source packetLength(packetPulled)
attr title "outgoing packet lengths"
attr unit b
vector 199 Network.bunkerhost[0].eth[0].queue outgoingDataRate:vector ETV
attr interpolationmode linear
attr recordingmode vector
attr source throughput(packetPulled)
attr title "outgoing datarate"
attr unit bps
vector 200 Network.bunkerhost[0].eth[0].mac packetReceivedFromUpper:vector(packetBytes) ETV
attr interpolationmode none
attr recordingmode vector(packetBytes)
attr source packetReceivedFromUpper
attr title "packet bytes from higher layer, packetBytes"
vector 201 Network.bunkerhost[0].eth[0].queue queueLength:vector ETV
attr autoWarmupFilter false
attr interpolationmode sample-hold
attr recordingmode vector
attr source "warmup(atomic(constant0(packetPushEnded) + count(packetPushStarted) - count(packetPulled) - count(packetRemoved) - count(packetDropped)))"
attr title "queue length"
attr unit pk
vector 202 Network.bunkerhost[0].eth[0].queue queueBitLength:vector ETV
attr autoWarmupFilter false
attr interpolationmode sample-hold
attr recordingmode vector
attr source "warmup(atomic(constant0(packetPushEnded) + sum(packetLength(packetPushStarted)) - sum(packetLength(packetPulled)) - sum(packetLength(packetRemoved)) - sum(packetLength(packetDropped))))"
attr title "queue bit length"
attr unit b
vector 203 Network.bunkerhost[3].eth[0].queue incomingPacketLengths:vector ETV
attr interpolationmode none
attr recordingmode vector
attr source packetLength(packetPushStarted)
attr title "incoming packet lengths"
attr unit b
vector 204 Network.bunkerhost[3].eth[0].queue incomingDataRate:vector ETV
attr interpolationmode linear
attr recordingmode vector
attr source throughput(packetPushStarted)
attr title "incoming datarate"
attr unit bps
vector 205 Network.bunkerhost[3].eth[0].queue queueingTime:vector ETV
attr interpolationmode none
attr recordingmode vector
attr source queueingTime(packetPulled)
attr title "queueing times"
attr unit s
vector 206 Network.bunkerhost[3].eth[0].queue outgoingPacketLengths:vector ETV
attr interpolationmode none
attr recordingmode vector
attr source packetLength(packetPulled)
attr title "outgoing packet lengths"
attr unit b
vector 207 Network.bunkerhost[3].eth[0].queue outgoingDataRate:vector ETV
attr interpolationmode linear
attr recordingmode vector
attr source throughput(packetPulled)
attr title "outgoing datarate"
attr unit bps
vector 208 Network.bunkerhost[3].eth[0].mac packetReceivedFromUpper:vector(packetBytes) ETV
attr interpolationmode none
attr recordingmode vector(packetBytes)
attr source packetReceivedFromUpper
attr title "packet bytes from higher layer, packetBytes"
vector 209 Network.bunkerhost[3].eth[0].queue queueLength:vector ETV
attr autoWarmupFilter false
attr interpolationmode sample-hold
attr recordingmode vector
attr source "warmup(atomic(constant0(packetPushEnded) + count(packetPushStarted) - count(packetPulled) - count(packetRemoved) - count(packetDropped)))"
attr title "queue length"
attr unit pk
vector 210 Network.bunkerhost[3].eth[0].queue queueBitLength:vector ETV
attr autoWarmupFilter false
attr interpolationmode sample-hold
attr recordingmode vector
attr source "warmup(atomic(constant0(packetPushEnded) + sum(packetLength(packetPushStarted)) - sum(packetLength(packetPulled)) - sum(packetLength(packetRemoved)) - sum(packetLength(packetDropped))))"
attr title "queue bit length"
attr unit b
vector 211 Network.bunkerhost[0].eth[0].mac txPk:vector(packetBytes) ETV
attr interpolationmode none
attr recordingmode vector(packetBytes)
attr source packetSentToLower
attr title "packets transmitted, packetBytes"
vector 212 Network.bunkerhost[3].eth[0].mac txPk:vector(packetBytes) ETV
attr interpolationmode none
attr recordingmode vector(packetBytes)
attr source packetSentToLower
attr title "packets transmitted, packetBytes"
vector 213 Network.bunkerrouter[0].eth[1].mac rxPkOk:vector(packetBytes) ETV
attr interpolationmode none
attr recordingmode vector(packetBytes)
attr source rxPkOk
attr title "packets received OK, packetBytes"
vector 214 Network.bunkerrouter[0].eth[1].mac passedUpPk:vector(packetBytes) ETV
attr interpolationmode none
attr recordingmode vector(packetBytes)
attr source packetSentToUpper
attr title "packets passed to higher layer, packetBytes"
vector 215 Network.bunkerrouter[0].eth[4].mac rxPkOk:vector(packetBytes) ETV
attr interpolationmode none
attr recordingmode vector(packetBytes)
attr source rxPkOk
attr title "packets received OK, packetBytes"
vector 216 Network.bunkerrouter[0].eth[4].mac passedUpPk:vector(packetBytes) ETV
attr interpolationmode none
attr recordingmode vector(packetBytes)
attr source packetSentToUpper
attr title "packets passed to higher layer, packetBytes"
vector 217 Network.mainrouter.eth[1].queue incomingPacketLengths:vector ETV
attr interpolationmode none
attr recordingmode vector
attr source packetLength(packetPushStarted)
attr title "incoming packet lengths"
attr unit b
vector 218 Network.mainrouter.eth[1].queue incomingDataRate:vector ETV
attr interpolationmode linear
attr recordingmode vector
attr source throughput(packetPushStarted)
attr title "incoming datarate"
attr unit bps
vector 219 Network.mainrouter.eth[1].queue queueingTime:vector ETV
attr interpolationmode none
attr recordingmode vector
attr source queueingTime(packetPulled)
attr title "queueing times"
attr unit s
vector 220 Network.mainrouter.eth[1].queue outgoingPacketLengths:vector ETV
attr interpolationmode none
attr recordingmode vector
attr source packetLength(packetPulled)
attr title "outgoing packet lengths"
attr unit b
vector 221 Network.mainrouter.eth[1].queue outgoingDataRate:vector ETV
attr interpolationmode linear
attr recordingmode vector
attr source throughput(packetPulled)
attr title "outgoing datarate"
attr unit bps
vector 222 Network.mainrouter.eth[1].mac packetReceivedFromUpper:vector(packetBytes) ETV
attr interpolationmode none
attr recordingmode vector(packetBytes)
attr source packetReceivedFromUpper
attr title "packet bytes from higher layer, packetBytes"
vector 223 Network.mainrouter.eth[1].queue queueLength:vector ETV
attr autoWarmupFilter false
attr interpolationmode sample-hold
attr recordingmode vector
attr source "warmup(atomic(constant0(packetPushEnded) + count(packetPushStarted) - count(packetPulled) - count(packetRemoved) - count(packetDropped)))"
attr title "queue length"
attr unit pk
vector 224 Network.mainrouter.eth[1].queue queueBitLength:vector ETV
attr autoWarmupFilter false
attr interpolationmode sample-hold
attr recordingmode vector
attr source "warmup(atomic(constant0(packetPushEnded) + sum(packetLength(packetPushStarted)) - sum(packetLength(packetPulled)) - sum(packetLength(packetRemoved)) - sum(packetLength(packetDropped))))"
attr title "queue bit length"
attr unit b
vector 225 Network.mainrouter.eth[1].mac txPk:vector(packetBytes) ETV
attr interpolationmode none
attr recordingmode vector(packetBytes)
attr source packetSentToLower
attr title "packets transmitted, packetBytes"
vector 226 Network.mainrouter.eth[3].queue incomingPacketLengths:vector ETV
attr interpolationmode none
attr recordingmode vector
attr source packetLength(packetPushStarted)
attr title "incoming packet lengths"
attr unit b
vector 227 Network.mainrouter.eth[3].queue incomingDataRate:vector ETV
attr interpolationmode linear
attr recordingmode vector
attr source throughput(packetPushStarted)
attr title "incoming datarate"
attr unit bps
vector 228 Network.mainrouter.eth[3].queue queueingTime:vector ETV
attr interpolationmode none
attr recordingmode vector
attr source queueingTime(packetPulled)
attr title "queueing times"
attr unit s
vector 229 Network.mainrouter.eth[3].queue outgoingPacketLengths:vector ETV
attr interpolationmode none
attr recordingmode vector
attr source packetLength(packetPulled)
attr title "outgoing packet lengths"
attr unit b
vector 230 Network.mainrouter.eth[3].queue outgoingDataRate:vector ETV
attr interpolationmode linear
attr recordingmode vector
attr source throughput(packetPulled)
attr title "outgoing datarate"
attr unit bps
vector 231 Network.mainrouter.eth[3].mac packetReceivedFromUpper:vector(packetBytes) ETV
attr interpolationmode none
attr recordingmode vector(packetBytes)
attr source packetReceivedFromUpper
attr title "packet bytes from higher layer, packetBytes"
vector 232 Network.mainrouter.eth[3].queue queueLength:vector ETV
attr autoWarmupFilter false
attr interpolationmode sample-hold
attr recordingmode vector
attr source "warmup(atomic(constant0(packetPushEnded) + count(packetPushStarted) - count(packetPulled) - count(packetRemoved) - count(packetDropped)))"
attr title "queue length"
attr unit pk
vector 233 Network.mainrouter.eth[3].queue queueBitLength:vector ETV
attr autoWarmupFilter false
attr interpolationmode sample-hold
attr recordingmode vector
attr source "warmup(atomic(constant0(packetPushEnded) + sum(packetLength(packetPushStarted)) - sum(packetLength(packetPulled)) - sum(packetLength(packetRemoved)) - sum(packetLength(packetDropped))))"
attr title "queue bit length"
attr unit b
vector 234 Network.bunkerrouter[0].eth[0].mac rxPkOk:vector(packetBytes) ETV
attr interpolationmode none
attr recordingmode vector(packetBytes)
attr source rxPkOk
attr title "packets received OK, packetBytes"
vector 235 Network.bunkerrouter[0].eth[0].mac passedUpPk:vector(packetBytes) ETV
attr interpolationmode none
attr recordingmode vector(packetBytes)
attr source packetSentToUpper
attr title "packets passed to higher layer, packetBytes"
vector 236 Network.bunkerrouter[0].eth[1].queue incomingPacketLengths:vector ETV
attr interpolationmode none
attr recordingmode vector
attr source packetLength(packetPushStarted)
attr title "incoming packet lengths"
attr unit b
vector 237 Network.bunkerrouter[0].eth[1].queue incomingDataRate:vector ETV
attr interpolationmode linear
attr recordingmode vector
attr source throughput(packetPushStarted)
attr title "incoming datarate"
attr unit bps
vector 238 Network.bunkerrouter[0].eth[1].queue queueingTime:vector ETV
attr interpolationmode none
attr recordingmode vector
attr source queueingTime(packetPulled)
attr title "queueing times"
attr unit s
vector 239 Network.bunkerrouter[0].eth[1].queue outgoingPacketLengths:vector ETV
attr interpolationmode none
attr recordingmode vector
attr source packetLength(packetPulled)
attr title "outgoing packet lengths"
attr unit b
vector 240 Network.bunkerrouter[0].eth[1].queue outgoingDataRate:vector ETV
attr interpolationmode linear
attr recordingmode vector
attr source throughput(packetPulled)
attr title "outgoing datarate"
attr unit bps
vector 241 Network.bunkerrouter[0].eth[1].mac packetReceivedFromUpper:vector(packetBytes) ETV
attr interpolationmode none
attr recordingmode vector(packetBytes)
attr source packetReceivedFromUpper
attr title "packet bytes from higher layer, packetBytes"
vector 242 Network.bunkerrouter[0].eth[1].queue queueLength:vector ETV
attr autoWarmupFilter false
attr interpolationmode sample-hold
attr recordingmode vector
attr source "warmup(atomic(constant0(packetPushEnded) + count(packetPushStarted) - count(packetPulled) - count(packetRemoved) - count(packetDropped)))"
attr title "queue length"
attr unit pk
vector 243 Network.bunkerrouter[0].eth[1].queue queueBitLength:vector ETV
attr autoWarmupFilter false
attr interpolationmode sample-hold
attr recordingmode vector
attr source "warmup(atomic(constant0(packetPushEnded) + sum(packetLength(packetPushStarted)) - sum(packetLength(packetPulled)) - sum(packetLength(packetRemoved)) - sum(packetLength(packetDropped))))"
attr title "queue bit length"
attr unit b
vector 244 Network.mainrouter.eth[3].mac txPk:vector(packetBytes) ETV
attr interpolationmode none
attr recordingmode vector(packetBytes)
attr source packetSentToLower
attr title "packets transmitted, packetBytes"
vector 245 Network.bunkerrouter[0].eth[1].mac txPk:vector(packetBytes) ETV
attr interpolationmode none
attr recordingmode vector(packetBytes)
attr source packetSentToLower
attr title "packets transmitted, packetBytes"
vector 246 Network.bunkerrouter[2].eth[0].mac rxPkOk:vector(packetBytes) ETV
attr interpolationmode none
attr recordingmode vector(packetBytes)
attr source rxPkOk
attr title "packets received OK, packetBytes"
vector 247 Network.bunkerrouter[2].eth[0].mac passedUpPk:vector(packetBytes) ETV
attr interpolationmode none
attr recordingmode vector(packetBytes)
attr source packetSentToUpper
attr title "packets passed to higher layer, packetBytes"
vector 248 Network.bunkerrouter[2].eth[3].queue incomingPacketLengths:vector ETV
attr interpolationmode none
attr recordingmode vector
attr source packetLength(packetPushStarted)
attr title "incoming packet lengths"
attr unit b
vector 249 Network.bunkerrouter[2].eth[3].queue incomingDataRate:vector ETV
attr interpolationmode linear
attr recordingmode vector
attr source throughput(packetPushStarted)
attr title "incoming datarate"
attr unit bps
vector 250 Network.bunkerrouter[2].eth[3].queue queueingTime:vector ETV
attr interpolationmode none
attr recordingmode vector
attr source queueingTime(packetPulled)
attr title "queueing times"
attr unit s
vector 251 Network.bunkerrouter[2].eth[3].queue outgoingPacketLengths:vector ETV
attr interpolationmode none
attr recordingmode vector
attr source packetLength(packetPulled)
attr title "outgoing packet lengths"
attr unit b
vector 252 Network.bunkerrouter[2].eth[3].queue outgoingDataRate:vector ETV
attr interpolationmode linear
attr recordingmode vector
attr source throughput(packetPulled)
attr title "outgoing datarate"
attr unit bps
vector 253 Network.bunkerrouter[2].eth[3].mac packetReceivedFromUpper:vector(packetBytes) ETV
attr interpolationmode none
attr recordingmode vector(packetBytes)
attr source packetReceivedFromUpper
attr title "packet bytes from higher layer, packetBytes"
vector 254 Network.bunkerrouter[2].eth[3].queue queueLength:vector ETV
attr autoWarmupFilter false
attr interpolationmode sample-hold
attr recordingmode vector
attr source "warmup(atomic(constant0(packetPushEnded) + count(packetPushStarted) - count(packetPulled) - count(packetRemoved) - count(packetDropped)))"
attr title "queue length"
attr unit pk
vector 255 Network.bunkerrouter[2].eth[3].queue queueBitLength:vector ETV
attr autoWarmupFilter false
attr interpolationmode sample-hold
attr recordingmode vector
attr source "warmup(atomic(constant0(packetPushEnded) + sum(packetLength(packetPushStarted)) - sum(packetLength(packetPulled)) - sum(packetLength(packetRemoved)) - sum(packetLength(packetDropped))))"
attr title "queue bit length"
attr unit b
vector 256 Network.bunkerhost[0].eth[0].mac rxPkOk:vector(packetBytes) ETV
attr interpolationmode none
attr recordingmode vector(packetBytes)
attr source rxPkOk
attr title "packets received OK, packetBytes"
vector 257 Network.bunkerhost[0].eth[0].mac passedUpPk:vector(packetBytes) ETV
attr interpolationmode none
attr recordingmode vector(packetBytes)
attr source packetSentToUpper
attr title "packets passed to higher layer, packetBytes"
vector 258 Network.bunkerhost[0].ethernet decapPk:vector(packetBytes) ETV
attr interpolationmode none
attr recordingmode vector(packetBytes)
attr source decapPk
attr title "packets decapsulated, packetBytes"
vector 259 Network.bunkerhost[0].udp packetReceived:vector(packetBytes) ETV
attr interpolationmode none
attr recordingmode vector(packetBytes)
attr source packetReceived
attr title "packets received, packetBytes"
vector 260 Network.bunkerhost[0].app[1] endtoenddelay:vector ETV
attr interpolationmode linear
attr recordingmode vector
attr source endtoenddelay
attr title "End-to-end Delay"
vector 261 Network.bunkerhost[0].app[1] packetReceived:vector(packetBytes) ETV
attr interpolationmode none
attr recordingmode vector(packetBytes)
attr source packetReceived
attr title "packets received, packetBytes"
vector 262 Network.bunkerrouter[2].eth[3].mac txPk:vector(packetBytes) ETV
attr interpolationmode none
attr recordingmode vector(packetBytes)
attr source packetSentToLower
attr title "packets transmitted, packetBytes"
vector 263 Network.bunkerrouter[0].eth[4].queue incomingPacketLengths:vector ETV
attr interpolationmode none
attr recordingmode vector
attr source packetLength(packetPushStarted)
attr title "incoming packet lengths"
attr unit b
vector 264 Network.bunkerrouter[0].eth[4].queue incomingDataRate:vector ETV
attr interpolationmode linear
attr recordingmode vector
attr source throughput(packetPushStarted)
attr title "incoming datarate"
attr unit bps
vector 265 Network.bunkerrouter[0].eth[4].queue queueingTime:vector ETV
attr interpolationmode none
attr recordingmode vector
attr source queueingTime(packetPulled)
attr title "queueing times"
attr unit s
vector 266 Network.bunkerrouter[0].eth[4].queue outgoingPacketLengths:vector ETV
attr interpolationmode none
attr recordingmode vector
attr source packetLength(packetPulled)
attr title "outgoing packet lengths"
attr unit b
vector 267 Network.bunkerrouter[0].eth[4].queue outgoingDataRate:vector ETV
attr interpolationmode linear
attr recordingmode vector
attr source throughput(packetPulled)
attr title "outgoing datarate"
attr unit bps
vector 268 Network.bunkerrouter[0].eth[4].mac packetReceivedFromUpper:vector(packetBytes) ETV
attr interpolationmode none
attr recordingmode vector(packetBytes)
attr source packetReceivedFromUpper
attr title "packet bytes from higher layer, packetBytes"
vector 269 Network.bunkerrouter[0].eth[4].queue queueLength:vector ETV
attr autoWarmupFilter false
attr interpolationmode sample-hold
attr recordingmode vector
attr source "warmup(atomic(constant0(packetPushEnded) + count(packetPushStarted) - count(packetPulled) - count(packetRemoved) - count(packetDropped)))"
attr title "queue length"
attr unit pk
vector 270 Network.bunkerrouter[0].eth[4].queue queueBitLength:vector ETV
attr autoWarmupFilter false
attr interpolationmode sample-hold
attr recordingmode vector
attr source "warmup(atomic(constant0(packetPushEnded) + sum(packetLength(packetPushStarted)) - sum(packetLength(packetPulled)) - sum(packetLength(packetRemoved)) - sum(packetLength(packetDropped))))"
attr title "queue bit length"
attr unit b
vector 271 Network.bunkerrouter[0].eth[4].mac txPk:vector(packetBytes) ETV
attr interpolationmode none
attr recordingmode vector(packetBytes)
attr source packetSentToLower
attr title "packets transmitted, packetBytes"
vector 272 Network.bunkerhost[10].eth[0].mac rxPkOk:vector(packetBytes) ETV
attr interpolationmode none
attr recordingmode vector(packetBytes)
attr source rxPkOk
attr title "packets received OK, packetBytes"
vector 273 Network.bunkerhost[10].eth[0].mac passedUpPk:vector(packetBytes) ETV
attr interpolationmode none
attr recordingmode vector(packetBytes)
attr source packetSentToUpper
attr title "packets passed to higher layer, packetBytes"
vector 274 Network.bunkerhost[10].ethernet decapPk:vector(packetBytes) ETV
attr interpolationmode none
attr recordingmode vector(packetBytes)
attr source decapPk
attr title "packets decapsulated, packetBytes"
vector 275 Network.bunkerhost[10].udp packetReceived:vector(packetBytes) ETV
attr interpolationmode none
attr recordingmode vector(packetBytes)
attr source packetReceived
attr title "packets received, packetBytes"
vector 276 Network.bunkerhost[10].app[1] endtoenddelay:vector ETV
attr interpolationmode linear
attr recordingmode vector
attr source endtoenddelay
attr title "End-to-end Delay"
vector 277 Network.bunkerhost[10].app[1] packetReceived:vector(packetBytes) ETV
attr interpolationmode none
attr recordingmode vector(packetBytes)
attr source packetReceived
attr title "packets received, packetBytes"
vector 278 Network.bunkerhost[3].eth[0].mac rxPkOk:vector(packetBytes) ETV
attr interpolationmode none
attr recordingmode vector(packetBytes)
attr source rxPkOk
attr title "packets received OK, packetBytes"
vector 279 Network.bunkerhost[3].eth[0].mac passedUpPk:vector(packetBytes) ETV
attr interpolationmode none
attr recordingmode vector(packetBytes)
attr source packetSentToUpper
attr title "packets passed to higher layer, packetBytes"
vector 280 Network.bunkerhost[3].ethernet decapPk:vector(packetBytes) ETV
attr interpolationmode none
attr recordingmode vector(packetBytes)
attr source decapPk
attr title "packets decapsulated, packetBytes"
vector 281 Network.bunkerhost[3].udp packetReceived:vector(packetBytes) ETV
attr interpolationmode none
attr recordingmode vector(packetBytes)
attr source packetReceived
attr title "packets received, packetBytes"
vector 282 Network.bunkerhost[3].app[1] endtoenddelay:vector ETV
attr interpolationmode linear
attr recordingmode vector
attr source endtoenddelay
attr title "End-to-end Delay"
vector 283 Network.bunkerhost[3].app[1] packetReceived:vector(packetBytes) ETV
attr interpolationmode none
attr recordingmode vector(packetBytes)
attr source packetReceived
attr title "packets received, packetBytes"
vector 284 Network.bunkerhost[0].app[0] throughput:vector ETV
attr recordingmode vector
attr source throughput(packetSent)
attr title throughput
attr unit bps
vector 285 Network.bunkerhost[0].app[0] packetSent:vector(packetBytes) ETV
attr interpolationmode none
attr recordingmode vector(packetBytes)
attr source packetSent
attr title "packets sent, packetBytes"
vector 286 Network.bunkerhost[1].app[1] throughput:vector ETV
attr recordingmode vector
attr source throughput(packetSent)
attr title throughput
attr unit bps
vector 287 Network.bunkerhost[1].app[1] packetSent:vector(packetBytes) ETV
attr interpolationmode none
attr recordingmode vector(packetBytes)
attr source packetSent
attr title "packets sent, packetBytes"
vector 288 Network.bunkerhost[2].app[1] throughput:vector ETV
attr recordingmode vector
attr source throughput(packetSent)
attr title throughput
attr unit bps
vector 289 Network.bunkerhost[2].app[1] packetSent:vector(packetBytes) ETV
attr interpolationmode none
attr recordingmode vector(packetBytes)
attr source packetSent
attr title "packets sent, packetBytes"
vector 290 Network.bunkerhost[1].udp packetSent:vector(packetBytes) ETV
attr interpolationmode none
attr recordingmode vector(packetBytes)
attr source packetSent
attr title "packets sent, packetBytes"
vector 291 Network.bunkerhost[1].ethernet encapPk:vector(packetBytes) ETV
attr interpolationmode none
attr recordingmode vector(packetBytes)
attr source encapPk
attr title "packets encapsulated, packetBytes"
vector 292 Network.bunkerhost[1].eth[0].queue incomingPacketLengths:vector ETV
attr interpolationmode none
attr recordingmode vector
attr source packetLength(packetPushStarted)
attr title "incoming packet lengths"
attr unit b
vector 293 Network.bunkerhost[1].eth[0].queue incomingDataRate:vector ETV
attr interpolationmode linear
attr recordingmode vector
attr source throughput(packetPushStarted)
attr title "incoming datarate"
attr unit bps
vector 294 Network.bunkerhost[1].eth[0].queue queueingTime:vector ETV
attr interpolationmode none
attr recordingmode vector
attr source queueingTime(packetPulled)
attr title "queueing times"
attr unit s
vector 295 Network.bunkerhost[1].eth[0].queue outgoingPacketLengths:vector ETV
attr interpolationmode none
attr recordingmode vector
attr source packetLength(packetPulled)
attr title "outgoing packet lengths"
attr unit b
vector 296 Network.bunkerhost[1].eth[0].queue outgoingDataRate:vector ETV
attr interpolationmode linear
attr recordingmode vector
attr source throughput(packetPulled)
attr title "outgoing datarate"
attr unit bps
vector 297 Network.bunkerhost[1].eth[0].mac packetReceivedFromUpper:vector(packetBytes) ETV
attr interpolationmode none
attr recordingmode vector(packetBytes)
attr source packetReceivedFromUpper
attr title "packet bytes from higher layer, packetBytes"
vector 298 Network.bunkerhost[1].eth[0].queue queueLength:vector ETV
attr autoWarmupFilter false
attr interpolationmode sample-hold
attr recordingmode vector
attr source "warmup(atomic(constant0(packetPushEnded) + count(packetPushStarted) - count(packetPulled) - count(packetRemoved) - count(packetDropped)))"
attr title "queue length"
attr unit pk
vector 299 Network.bunkerhost[1].eth[0].queue queueBitLength:vector ETV
attr autoWarmupFilter false
attr interpolationmode sample-hold
attr recordingmode vector
attr source "warmup(atomic(constant0(packetPushEnded) + sum(packetLength(packetPushStarted)) - sum(packetLength(packetPulled)) - sum(packetLength(packetRemoved)) - sum(packetLength(packetDropped))))"
attr title "queue bit length"
attr unit b
vector 300 Network.bunkerhost[1].eth[0].mac txPk:vector(packetBytes) ETV
attr interpolationmode none
attr recordingmode vector(packetBytes)
attr source packetSentToLower
attr title "packets transmitted, packetBytes"
vector 301 Network.bunkerrouter[0].eth[2].mac rxPkOk:vector(packetBytes) ETV
attr interpolationmode none
attr recordingmode vector(packetBytes)
attr source rxPkOk
attr title "packets received OK, packetBytes"
vector 302 Network.bunkerrouter[0].eth[2].mac passedUpPk:vector(packetBytes) ETV
attr interpolationmode none
attr recordingmode vector(packetBytes)
attr source packetSentToUpper
attr title "packets passed to higher layer, packetBytes"
vector 303 Network.server.app[0] successfulLookup:vector ETV
attr interpolationmode linear
attr recordingmode vector
attr source successfulLookup
attr title "Successful Lookup Count"
vector 304 Network.bunkerrouter[0].eth[2].queue incomingPacketLengths:vector ETV
attr interpolationmode none
attr recordingmode vector
attr source packetLength(packetPushStarted)
attr title "incoming packet lengths"
attr unit b
vector 305 Network.bunkerrouter[0].eth[2].queue incomingDataRate:vector ETV
attr interpolationmode linear
attr recordingmode vector
attr source throughput(packetPushStarted)
attr title "incoming datarate"
attr unit bps
vector 306 Network.bunkerrouter[0].eth[2].queue queueingTime:vector ETV
attr interpolationmode none
attr recordingmode vector
attr source queueingTime(packetPulled)
attr title "queueing times"
attr unit s
vector 307 Network.bunkerrouter[0].eth[2].queue outgoingPacketLengths:vector ETV
attr interpolationmode none
attr recordingmode vector
attr source packetLength(packetPulled)
attr title "outgoing packet lengths"
attr unit b
vector 308 Network.bunkerrouter[0].eth[2].queue outgoingDataRate:vector ETV
attr interpolationmode linear
attr recordingmode vector
attr source throughput(packetPulled)
attr title "outgoing datarate"
attr unit bps
vector 309 Network.bunkerrouter[0].eth[2].mac packetReceivedFromUpper:vector(packetBytes) ETV
attr interpolationmode none
attr recordingmode vector(packetBytes)
attr source packetReceivedFromUpper
attr title "packet bytes from higher layer, packetBytes"
vector 310 Network.bunkerrouter[0].eth[2].queue queueLength:vector ETV
attr autoWarmupFilter false
attr interpolationmode sample-hold
attr recordingmode vector
attr source "warmup(atomic(constant0(packetPushEnded) + count(packetPushStarted) - count(packetPulled) - count(packetRemoved) - count(packetDropped)))"
attr title "queue length"
attr unit pk
vector 311 Network.bunkerrouter[0].eth[2].queue queueBitLength:vector ETV
attr autoWarmupFilter false
attr interpolationmode sample-hold
attr recordingmode vector
attr source "warmup(atomic(constant0(packetPushEnded) + sum(packetLength(packetPushStarted)) - sum(packetLength(packetPulled)) - sum(packetLength(packetRemoved)) - sum(packetLength(packetDropped))))"
attr title "queue bit length"
attr unit b
vector 312 Network.bunkerrouter[0].eth[2].mac txPk:vector(packetBytes) ETV
attr interpolationmode none
attr recordingmode vector(packetBytes)
attr source packetSentToLower
attr title "packets transmitted, packetBytes"
vector 313 Network.bunkerrouter[0].eth[3].queue incomingPacketLengths:vector ETV
attr interpolationmode none
attr recordingmode vector
attr source packetLength(packetPushStarted)
attr title "incoming packet lengths"
attr unit b
vector 314 Network.bunkerrouter[0].eth[3].queue incomingDataRate:vector ETV
attr interpolationmode linear
attr recordingmode vector
attr source throughput(packetPushStarted)
attr title "incoming datarate"
attr unit bps
vector 315 Network.bunkerrouter[0].eth[3].queue queueingTime:vector ETV
attr interpolationmode none
attr recordingmode vector
attr source queueingTime(packetPulled)
attr title "queueing times"
attr unit s
vector 316 Network.bunkerrouter[0].eth[3].queue outgoingPacketLengths:vector ETV
attr interpolationmode none
attr recordingmode vector
attr source packetLength(packetPulled)
attr title "outgoing packet lengths"
attr unit b
vector 317 Network.bunkerrouter[0].eth[3].queue outgoingDataRate:vector ETV
attr interpolationmode linear
attr recordingmode vector
attr source throughput(packetPulled)
attr title "outgoing datarate"
attr unit bps
vector 318 Network.bunkerrouter[0].eth[3].mac packetReceivedFromUpper:vector(packetBytes) ETV
attr interpolationmode none
attr recordingmode vector(packetBytes)
attr source packetReceivedFromUpper
attr title "packet bytes from higher layer, packetBytes"
vector 319 Network.bunkerrouter[0].eth[3].queue queueLength:vector ETV
attr autoWarmupFilter false
attr interpolationmode sample-hold
attr recordingmode vector
attr source "warmup(atomic(constant0(packetPushEnded) + count(packetPushStarted) - count(packetPulled) - count(packetRemoved) - count(packetDropped)))"
attr title "queue length"
attr unit pk
vector 320 Network.bunkerrouter[0].eth[3].queue queueBitLength:vector ETV
attr autoWarmupFilter false
attr interpolationmode sample-hold
attr recordingmode vector
attr source "warmup(atomic(constant0(packetPushEnded) + sum(packetLength(packetPushStarted)) - sum(packetLength(packetPulled)) - sum(packetLength(packetRemoved)) - sum(packetLength(packetDropped))))"
attr title "queue bit length"
attr unit b
vector 321 Network.bunkerrouter[0].eth[3].mac txPk:vector(packetBytes) ETV
attr interpolationmode none
attr recordingmode vector(packetBytes)
attr source packetSentToLower
attr title "packets transmitted, packetBytes"
vector 322 Network.bunkerhost[1].eth[0].mac rxPkOk:vector(packetBytes) ETV
attr interpolationmode none
attr recordingmode vector(packetBytes)
attr source rxPkOk
attr title "packets received OK, packetBytes"
vector 323 Network.bunkerhost[1].eth[0].mac passedUpPk:vector(packetBytes) ETV
attr interpolationmode none
attr recordingmode vector(packetBytes)
attr source packetSentToUpper
attr title "packets passed to higher layer, packetBytes"
vector 324 Network.bunkerhost[1].ethernet decapPk:vector(packetBytes) ETV
attr interpolationmode none
attr recordingmode vector(packetBytes)
attr source decapPk
attr title "packets decapsulated, packetBytes"
vector 325 Network.bunkerhost[1].udp packetReceived:vector(packetBytes) ETV
attr interpolationmode none
attr recordingmode vector(packetBytes)
attr source packetReceived
attr title "packets received, packetBytes"
vector 326 Network.bunkerhost[1].app[1] endtoenddelay:vector ETV
attr interpolationmode linear
attr recordingmode vector
attr source endtoenddelay
attr title "End-to-end Delay"
vector 327 Network.bunkerhost[1].app[1] packetReceived:vector(packetBytes) ETV
attr interpolationmode none
attr recordingmode vector(packetBytes)
attr source packetReceived
attr title "packets received, packetBytes"
vector 328 Network.bunkerhost[1].app[1] chunkLength:vector ETV
attr interpolationmode none
attr recordingmode vector
[...]
264	2606361 50846 279 17804 0.1 300 3000 0 80480 398480 21605753600
265	2657207 273 279 17104 7.0010024 286.0027336 12 0 0 0 0
266	2657480 305 279 17104 7.0010024 286.0027336 12 528 8048 39848 216057536
267	2657785 50846 279 17804 0.1 300 3000 0 80480 398480 21605753600
268	2708631 294 279 17104 7.0010024 286.0027336 12 66 1006 4981 3375899
269	2708925 273 279 17104 7.0010024 286.0027336 12 0 0 0 0
270	2709198 273 279 17104 7.0010024 286.0027336 12 0 0 0 0
271	2709471 293 280 17105 7.0010616 286.0035448 12 66 1006 4981 3375899
272	2709764 335 282 13293 7.0010928 205.0011872 14 66 1028 3561 2251729
273	2710099 335 282 13293 7.0010928 205.0011872 14 66 1028 3561 2251729
274	2710434 335 283 13294 7.0010928 205.0011872 14 48 1010 3309 2128069
275	2710769 334 285 13296 7.0010928 205.0011872 14 28 990 3029 2001309
276	2711103 426 286 13297 7.0010928 205.0011872 14 0.0004776 0.0037152 0.0161488 3.403494144e-05
277	2711529 333 286 13297 7.0010928 205.0011872 14 20 982 2917 1953741
278	2711862 294 287 17107 7.0011616 286.0036448 12 66 1006 4981 3375899
279	2712156 294 287 17107 7.0011616 286.0036448 12 66 1006 4981 3375899
280	2712450 293 288 17108 7.0011616 286.0036448 12 48 988 4765 3200471
281	2712743 293 290 17110 7.0011616 286.0036448 12 28 968 4525 3014671
282	2713036 368 291 17111 7.0011616 286.0036448 12 0.0004776 0.0036448 0.0204472 4.968915264e-05
283	2713404 293 291 17111 7.0011616 286.0036448 12 20 960 4429 2943039
284	2713697 50901 292 17804 0.1 300 3000 0 1600 36800 58880000
285	2764598 369 292 17565 8 297 23 20 20 460 9200
286	2764967 50951 293 17804 0.1 300 3000 0 73840 593680 27359942400
287	2815918 348 293 17542 8 295 20 20 907 7421 4230471
288	2816266 50838 294 17794 0.1 300 3000 0 72640 874080 44947993600
289	2867104 703 294 17794 8 300 41 20 908 10946 6967764
290	2867807 616 298 17543 8 295 37 28 915 8057 4363815
291	2868423 617 305 17545 8 295 37 48 935 8797 4700895
292	2869040 654 308 17546 8 295 37 528 7624 75704 321892800
293	2869694 50951 308 17804 0.1 300 3000 0 86480 757040 34064736000
294	2920645 578 308 17546 8 295 37 0 6.88e-05 6.88e-05 4.73344e-09
295	2921223 662 308 17546 8 295 37 528 7624 75704 321892800
296	2921885 50951 308 17804 0.1 300 3000 0 86480 757040 34064736000
297	2972836 625 308 17546 8 295 37 66 953 9463 5029575
298	2973461 585 308 17546 8 295 38 0 1 1 1
299	2974046 587 308 17546 8 295 38 0 528 528 278784
300	2974633 894 311 17547 8.0000592 295.0003656 37 66 953 9463 5029575
301	2975527 894 317 17549 8.0001592 295.0004656 37 66 953 9463 5029575
302	2976421 894 317 17549 8.0001592 295.0004656 37 66 953 9463 5029575
303	2977315 564 367 13537 8.0005464 210.0004776 25 1 25 325 5525
304	2977879 535 403 16910 8.0008648 280.0006928 21 528 7816 86720 476293888
305	2978414 50802 403 17804 0.1 300 3000 0 109440 867200 55336972800
306	3029216 483 403 16910 8.0008648 280.0006928 21 0 8.64e-05 8.64e-05 7.46496e-09
307	3029699 535 403 16910 8.0008648 280.0006928 21 528 7816 86720 476293888
308	3030234 50802 403 17804 0.1 300 3000 0 109440 867200 55336972800
309	3081036 515 403 16910 8.0008648 280.0006928 21 66 977 10840 7442092
310	3081551 500 403 16910 8.0008648 280.0006928 22 0 1 1 1
311	3082051 502 403 16910 8.0008648 280.0006928 22 0 752 752 565504
312	3082553 511 404 16911 8.000924 280.0012856 21 66 977 10840 7442092
313	3083064 1238 410 17637 8.0009336 297.0009336 49 528 7592 119752 548580416
314	3084302 51044 410 17804 0.1 300 3000 0 75920 1197520 57104620800
315	3135346 1124 410 17637 8.0009336 297.0009336 49 0 0.0002512 0.0002512 6.310144e-08
316	3136470 1239 410 17637 8.0009336 297.0009336 49 528 7592 119752 548580416
317	3137709 51044 410 17804 0.1 300 3000 0 75920 1197520 57104620800
318	3188753 1191 410 17637 8.0009336 297.0009336 49 66 949 14969 8571569
319	3189944 1139 410 17637 8.0009336 297.0009336 50 0 1 1 1
320	3191083 1141 410 17637 8.0009336 297.0009336 50 0 528 528 278784
321	3192224 1200 411 17638 8.0009928 297.0011448 49 66 949 14969 8571569
322	3193424 511 413 16913 8.001024 280.0013856 21 66 977 10840 7442092
323	3193935 511 413 16913 8.001024 280.0013856 21 66 977 10840 7442092
324	3194446 510 414 16914 8.001024 280.0013856 21 48 959 10462 7058656
325	3194956 510 416 16916 8.001024 280.0013856 21 28 939 10042 6648576
326	3195466 638 417 16917 8.001024 280.0013856 21 0.0004776 0.0033568 0.033048 6.905650304e-05
327	3196104 510 417 16917 8.001024 280.0013856 21 20 931 9874 6489248
328	3196614 320 417 17542 8.001024 295 18 35 907 7381 4229671
329	3196934 1200 422 17642 8.0010928 297.0012448 49 66 949 14969 8571569
330	3198134 1200 422 17642 8.0010928 297.0012448 49 66 949 14969 8571569
331	3199334 1200 423 17643 8.0010928 297.0012448 49 48 931 14087 8048561
332	3200534 1199 425 17645 8.0010928 297.0012448 49 28 911 13107 7504681
333	3201733 1515 426 17646 8.0010928 297.0012448 49 0.0003424 0.0041104 0.0567352 0.00010086376512
334	3203248 1199 426 17646 8.0010928 297.0012448 49 20 903 12715 7298105
335	3204447 372 426 17226 8.0010928 289 20 79 908 10526 6959364
336	3204819 546 451 17560 8.0016464 295.0009312 18 0.000544 0.003728 0.0344104 8.51462688e-05
337	3205365 305 472 16506 8.002696 272.0025088 10 0.0004608 0.0025088 0.0135392 2.22457344e-05
338	3205670 50883 473 17804 0.1 300 3000 0 1600 27200 43520000
339	3256553 268 473 16509 9 273 17 20 20 340 6800
340	3256821 50765 474 17804 0.1 300 3000 0 1600 33600 53760000
341	3307586 338 474 17289 9 291 21 20 20 420 8400
342	3307924 50924 530 17795 0.1 300 3000 0 77520 631040 32018931200
343	3358848 362 530 17795 10 300 21 20 969 8585 5480647
344	3359210 50878 531 17804 0.1 300 3000 0 81520 586880 36711628800
345	3410088 672 531 17405 10 294 38 20 999 7336 5580872
346	3410760 654 534 17797 10 300 39 28 977 9257 5633463
347	3411414 1081 536 17568 10 297 63 28 1007 8340 5720280
348	3412495 655 539 17801 10 300 39 48 997 10037 6019343
349	3413150 1081 540 17576 10 297 63 48 1027 9600 6079080
350	3414231 693 541 17803 10 300 39 528 8120 85912 409171904
351	3414924 50875 541 17803 0.1 300 3000 0 81200 799680 38203532800
352	3465799 615 541 17803 10 300 39 0 0.0005928 0.0005928 3.5141184e-07
353	3466414 701 541 17803 10 300 39 528 8120 85912 409171904
354	3467115 50875 541 17803 0.1 300 3000 0 81200 799680 38203532800
355	3517990 664 541 17803 10 300 39 66 1015 10739 6393311
356	3518654 622 541 17803 10 300 40 0 1 1 1
357	3519276 624 541 17803 10 300 40 0 528 528 278784
358	3519900 1142 542 17580 10 297 63 528 8360 85872 412485888
359	3521042 50937 542 17804 0.1 300 3000 0 88880 858720 44929382400
360	3571979 1051 542 17580 10 297 63 0 6.88e-05 0.0002064 1.420032e-08
361	3573030 1166 542 17580 10 297 63 528 8360 85872 412485888
362	3574196 50937 542 17804 0.1 300 3000 0 88880 858720 44929382400
363	3625133 1105 542 17580 10 297 63 66 1045 10734 6445092
364	3626238 1078 542 17580 10 297 66 0 1 3 3
365	3627316 1084 542 17580 10 297 66 0 528 1584 836352
366	3628400 932 543 17384 10.0000592 293.0000592 38 66 1015 9996 5841262
367	3629332 1529 544 17582 10.0000592 297.0000592 63 66 1045 10734 6445092
368	3630861 932 547 17386 10.0001592 293.0001592 38 66 1015 9996 5841262
369	3631793 932 547 17386 10.0001592 293.0001592 38 66 1015 9996 5841262
370	3632725 1529 548 17584 10.0001592 297.0001592 63 66 1045 10734 6445092
371	3634254 1529 548 17584 10.0001592 297.0001592 63 66 1045 10734 6445092
372	3635783 459 615 17165 10.000796 287.0026208 18 528 8304 74112 443725312
373	3636242 50782 615 17804 0.1 300 3000 0 83040 741120 44372531200
374	3687024 407 615 17165 10.000796 287.0026208 18 0 0 0 0
375	3687431 459 615 17165 10.000796 287.0026208 18 528 8304 74112 443725312
376	3687890 50782 615 17804 0.1 300 3000 0 83040 741120 44372531200
377	3738672 442 615 17165 10.000796 287.0026208 18 66 1038 9264 6933208
378	3739114 407 615 17165 10.000796 287.0026208 18 0 0 0 0
379	3739521 407 615 17165 10.000796 287.0026208 18 0 0 0 0
380	3739928 444 616 17166 10.0008552 287.0033944 18 66 1038 9264 6933208
381	3740372 1262 622 17533 10.0008648 294.0022488 50 528 7504 98192 425819392
382	3741634 50924 622 17804 0.1 300 3000 0 75040 981920 44525824000
383	3792558 1158 622 17533 10.0008648 294.0022488 50 0 0.0003264 0.0003872 1.102336e-07
384	3793716 1264 622 17533 10.0008648 294.0022488 50 528 7504 98192 425819392
385	3794980 50924 622 17804 0.1 300 3000 0 75040 981920 44525824000
386	3845904 1214 622 17533 10.0008648 294.0022488 50 66 938 12274 6653428
387	3847118 1189 622 17533 10.0008648 294.0022488 52 0 1 2 2
388	3848307 1194 622 17533 10.0008648 294.0022488 52 0 6976 7504 48943360
389	3849501 1233 623 17534 10.000924 294.0028984 50 66 938 12274 6653428
390	3850734 444 625 17168 10.0009552 287.0034944 18 66 1038 9264 6933208
391	3851178 444 625 17168 10.0009552 287.0034944 18 66 1038 9264 6933208
392	3851622 444 626 17169 10.0009552 287.0034944 18 48 1020 8940 6605536
393	3852066 444 628 17171 10.0009552 287.0034944 18 28 1000 8580 6255136
394	3852510 550 629 17172 10.0009552 287.0034944 18 0.0004776 0.0040192 0.036928 0.00010202146176
395	3853060 443 629 17172 10.0009552 287.0034944 18 20 992 8436 6119008
396	3853503 1233 630 17536 10.001024 294.0029984 50 66 938 12274 6653428
397	3854736 1233 630 17536 10.001024 294.0029984 50 66 938 12274 6653428
398	3855969 1233 631 17537 10.001024 294.0029984 50 48 920 11374 6227764
399	3857202 1233 633 17539 10.001024 294.0029984 50 28 900 10374 5792804
400	3858435 1558 634 17540 10.001024 294.0029984 50 0.0004624 0.0029984 0.0471608 6.86216352e-05
401	3859993 1232 634 17540 10.001024 294.0029984 50 20 892 9974 5630020
402	3861225 50843 635 17804 0.1 300 3000 0 76960 1000000 51649152000
403	3912068 419 635 17407 11 294 24 20 962 12500 8047460
404	3912487 50822 636 17804 0.1 300 3000 0 78880 414480 21320249600
405	3963309 604 636 17708 11 299 36 20 986 5181 3281849
406	3963913 50755 637 17804 0.1 300 3000 0 1600 33600 53760000
407	4014668 336 637 17682 11 298 21 20 20 420 8400
408	4015004 597 639 17411 11 294 35 28 970 13000 8257620
409	4015601 893 641 17712 11 299 54 28 994 5973 3381161
410	4016494 462 642 17683 11 298 28 28 900 3983 2387721
411	4016956 597 646 17419 11 294 35 48 990 13700 8791620
412	4017553 895 647 17716 11 299 54 48 1014 7053 3641681
413	4018448 462 648 17685 11 298 28 48 920 4543 2558241
414	4018910 632 649 17423 11 294 35 528 8064 114640 594954240
415	4019542 50867 649 17804 0.1 300 3000 0 80640 1146400 61730764800
416	4070409 585 649 17423 11 294 35 0 0.000616 0.001176 6.2546688e-07
417	4070994 655 649 17423 11 294 35 528 8064 114640 594954240
418	4071649 50867 649 17804 0.1 300 3000 0 80640 1146400 61730764800
419	4122516 622 649 17423 11 294 35 66 1008 14330 9296160
420	4123138 609 649 17423 11 294 38 0 1 3 3
421	4123747 616 649 17423 11 294 38 0 5504 6560 30851584
422	4124363 948 650 17718 11 299 54 528 8256 64200 250437440
423	4125311 50871 650 17804 0.1 300 3000 0 82560 642000 26534816000
424	4176182 875 650 17718 11 299 54 0 6.88e-05 0.0002064 1.420032e-08
425	4177057 972 650 17718 11 299 54 528 8256 64200 250437440
426	4178029 50871 650 17804 0.1 300 3000 0 82560 642000 26534816000
427	4228900 919 650 17718 11 299 54 66 1032 8025 3913085
428	4229819 900 650 17718 11 299 57 0 1 3 3
429	4230719 907 650 17718 11 299 57 0 2440 3496 6511168
430	4231626 490 651 17686 11 298 28 528 7504 40376 174775104
431	4232116 50780 651 17804 0.1 300 3000 0 75040 403760 17616057600
432	4282896 443 651 17686 11 298 28 0 0.0001472 0.0001472 2.166784e-08
433	4283339 498 651 17686 11 298 28 528 7504 40376 174775104
434	4283837 50780 651 17804 0.1 300 3000 0 75040 403760 17616057600
435	4334617 470 651 17686 11 298 28 66 938 5047 2730861
436	4335087 451 651 17686 11 298 29 0 1 1 1
437	4335538 453 651 17686 11 298 29 0 528 528 278784
438	4335991 871 652 17499 11.0000592 294.0006496 35 66 1008 14330 9296160
439	4336862 1308 653 17720 11.0000592 299.0000592 54 66 1032 8025 3913085
440	4338170 684 654 17687 11.0000592 298.0000592 28 66 938 5047 2730861
441	4338854 871 658 17503 11.0001592 294.0007496 35 66 1008 14330 9296160
442	4339725 871 658 17503 11.0001592 294.0007496 35 66 1008 14330 9296160
443	4340596 1308 659 17722 11.0001592 299.0001592 54 66 1032 8025 3913085
444	4341904 1308 659 17722 11.0001592 299.0001592 54 66 1032 8025 3913085
445	4343212 684 660 17689 11.0001592 298.0001592 28 66 938 5047 2730861
446	4343896 684 660 17689 11.0001592 298.0001592 28 66 938 5047 2730861
447	4344580 568 743 17672 11.000796 297.0019776 22 528 8088 100688 557629696
448	4345148 50959 743 17804 0.1 300 3000 0 80880 1006880 55762969600
449	4396107 503 743 17672 11.000796 297.0019776 22 0 0 0 0
450	4396610 568 743 17672 11.000796 297.0019776 22 528 8088 100688 557629696
451	4397178 50959 743 17804 0.1 300 3000 0 80880 1006880 55762969600
452	4448137 547 743 17672 11.000796 297.0019776 22 66 1011 12586 8712964
453	4448684 503 743 17672 11.000796 297.0019776 22 0 0 0 0
454	4449187 503 743 17672 11.000796 297.0019776 22 0 0 0 0
455	4449690 546 746 17673 11.0008552 297.0025368 22 66 1011 12586 8712964
456	4450236 1122 752 17786 11.0009336 299.0019512 45 528 8336 109120 580868992
457	4451358 50843 752 17804 0.1 300 3000 0 108320 1091200 65124198400
458	4502201 1021 752 17786 11.0009336 299.0019512 45 0 0.0002136 0.0002136 4.562496e-08
459	4503222 1122 752 17786 11.0009336 299.0019512 45 528 8336 109120 580868992
460	4504344 50843 752 17804 0.1 300 3000 0 108320 1091200 65124198400
461	4555187 1078 752 17786 11.0009336 299.0019512 45 66 1042 13640 9076078
462	4556265 1035 752 17786 11.0009336 299.0019512 46 0 1 1 1
463	4557300 1038 752 17786 11.0009336 299.0019512 46 0 3512 3512 12334144
464	4558338 546 753 17675 11.0009552 297.0026368 22 66 1011 12586 8712964
465	4558884 546 753 17675 11.0009552 297.0026368 22 66 1011 12586 8712964
466	4559430 545 754 17676 11.0009552 297.0026368 22 48 993 12190 8266996
467	4559975 544 756 17678 11.0009552 297.0026368 22 28 973 11750 7788196
468	4560519 673 757 17679 11.0009552 297.0026368 22 0.0004776 0.0036608 0.0496352 0.00012778538112
469	4561192 544 757 17679 11.0009552 297.0026368 22 20 965 11574 7601604
470	4561736 405 757 17407 11.0009552 294 23 25 962 12480 8047060
471	4562141 1099 762 17787 11.0009928 299.0025016 45 66 1042 13640 9076078
472	4563240 1098 764 17789 11.0010928 299.0026016 45 66 1042 13640 9076078
473	4564338 1098 764 17789 11.0010928 299.0026016 45 66 1042 13640 9076078
474	4565436 1098 765 17790 11.0010928 299.0026016 45 48 1024 12830 8599618
475	4566534 1097 767 17792 11.0010928 299.0026016 45 28 1004 11930 8104418
476	4567631 1387 768 17793 11.0010928 299.0026016 45 0.0004776 0.004 0.0557192 0.00012121897152
477	4569018 1096 768 17793 11.0010928 299.0026016 45 20 996 11570 7916418
478	4570114 187 768 15436 11.0010928 249 10 82 986 4661 3271449
479	4570301 354 1004 17562 13.001024 297 20 119 943 10989 7305727
480	4570655 905 1027 17646 13.0024848 297.0012448 29 0.0003424 0.0041104 0.0467528 9.579539776e-05
481	4571560 50940 1157 17804 0.1 300 3000 0 1600 25600 40960000
482	4622500 254 1157 17408 17 294 16 20 20 320 6400
483	4622754 526 1161 17412 17 294 32 28 1000 6966 4329508
484	4623280 527 1167 17420 17 294 32 48 1020 7606 4620948
485	4623807 557 1170 17424 17 294 32 528 8304 65456 313928448
486	4624364 50921 1170 17804 0.1 300 3000 0 83040 654560 31392844800
487	4675285 480 1170 17424 17 294 32 0 0 0 0
488	4675765 557 1170 17424 17 294 32 528 8304 65456 313928448
489	4676322 50921 1170 17804 0.1 300 3000 0 83040 654560 31392844800
490	4727243 527 1170 17424 17 294 32 66 1038 8182 4905132
491	4727770 480 1170 17424 17 294 32 0 0 0 0
492	4728250 480 1170 17424 17 294 32 0 0 0 0
493	4728730 782 1173 17427 17.0000592 294.0000592 32 66 1038 8182 4905132
494	4729512 782 1179 17433 17.0001592 294.0001592 32 66 1038 8182 4905132
495	4730294 782 1179 17433 17.0001592 294.0001592 32 66 1038 8182 4905132
496	4731076 333 1388 17795 19.0009552 300 19 42 969 8545 5479847
497	4731409 387 1413 17277 19.001872 289.0019896 15 584 8120 71504 423147776
498	4731796 50927 1413 17804 0.1 300 3000 0 81200 715040 42759552000
499	4782723 344 1413 17277 19.001872 289.0019896 15 0 0 0 0
500	4783067 387 1413 17277 19.001872 289.0019896 15 584 8120 71504 423147776
501	4783454 50927 1413 17804 0.1 300 3000 0 81200 715040 42759552000
502	4834381 373 1413 17277 19.001872 289.0019896 15 73 1015 8938 6611684
503	4834754 344 1413 17277 19.001872 289.0019896 15 0 0 0 0
504	4835098 344 1413 17277 19.001872 289.0019896 15 0 0 0 0
505	4835442 371 1414 17278 19.0020776 289.0025528 15 73 1015 8938 6611684
506	4835813 371 1416 17280 19.0021776 289.0026528 15 73 1015 8938 6611684
507	4836184 371 1416 17280 19.0021776 289.0026528 15 73 1015 8938 6611684
508	4836555 370 1417 17281 19.0021776 289.0026528 15 55 997 8668 6294776
509	4836925 370 1419 17283 19.0021776 289.0026528 15 35 977 8368 5954056
510	4837295 460 1420 17284 19.0021776 289.0026528 15 0.0006592 0.0036736 0.0352896 9.604364288e-05
511	4837755 370 1420 17284 19.0021776 289.0026528 15 27 969 8248 5821128
512	4838125 460 1420 17284 19.0021776 289.0026528 15 0.0006592 0.0036736 0.0352896 9.604364288e-05
513	4838585 582 1660 16917 22.001776 280.0013856 19 0.0006176 0.0033568 0.0320928 6.860029952e-05
514	4839167 51305 1785 17804 0.1 300 3000 0 1600 17600 28160000
515	4890472 178 1785 16114 24 265 11 20 20 220 4400
516	4890650 50937 1951 17804 0.1 300 3000 0 1600 40000 64000000
517	4941587 407 1951 17564 27 297 25 20 20 500 10000
518	4941994 50906 1952 17804 0.1 300 3000 0 1600 28800 46080000
519	4992900 292 1952 17376 27 293 18 20 20 360 7200
520	4993192 50986 2004 17804 0.1 300 3000 0 1600 28800 46080000
521	5044178 289 2004 17406 29 294 18 20 20 360 7200
522	5044467 322 2184 17710 29.0009552 299 17 25 679 7434 3883694
523	5044789 239 2211 16982 29.0011616 284 11 27 999 6796 5570072
524	5045028 263 2225 17563 29.0012304 297 14 48 913 6770 4612076
525	5045291 644 2306 17679 29.00432 297.0026368 21 0.0008472 0.0036608 0.0491576 0.00012755727936
526	5045935 211 2487 17341 31.0009552 292 12 92 982 6699 4783307
527	5046146 491 2544 17172 31.0020496 287.0034944 16 0.0005744 0.0040192 0.0359728 0.00010156525824
528	5046637 580 2956 17793 35.0025856 299.0026016 19 0.0006992 0.004 0.0433016 0.00011528832576
529	5047217 270 3194 14916 41 238 16 27 992 6390 4213700
530	5047487 50871 3194 17804 0.1 300 3000 0 79360 511200 26967680000
531	5098358 270 3194 14916 41 238 16 27 992 6390 4213700
532	5098628 250 5365 17111 71.003624 286.0036448 8 0.001196 0.0036448 0.0185368 4.87767456e-05
533	5098878 725 7572 17540 108.0008832 294.0029984 23 0.0004624 0.0029984 0.0339392 6.204457344e-05
534	5099603 190 8494 13297 125.0008672 205.0011872 6 0.0008672 0.0037152 0.012328 3.221012736e-05
535	5099793 53 9245 15166 136.0018976 242.0002936 2 1872 8360 10232 73393984
536	5099846 50950 9245 17804 0.1 300 3000 0 83600 102320 7339398400
537	5150796 47 9245 15166 136.0018976 242.0002936 2 0 0 0 0
538	5150843 53 9245 15166 136.0018976 242.0002936 2 1872 8360 10232 73393984
539	5150896 50950 9245 17804 0.1 300 3000 0 83600 102320 7339398400
540	5201846 52 9245 15166 136.0018976 242.0002936 2 234 1045 1279 1146781
541	5201898 47 9245 15166 136.0018976 242.0002936 2 0 0 0 0
542	5201945 47 9245 15166 136.0018976 242.0002936 2 0 0 0 0
543	5201992 50 9246 15167 136.00274 242.0004872 2 234 1045 1279 1146781
544	5202042 50 9248 15169 136.00284 242.0005872 2 234 1045 1279 1146781
545	5202092 50 9248 15169 136.00284 242.0005872 2 234 1045 1279 1146781
546	5202142 50 9249 15170 136.00284 242.0005872 2 216 1027 1243 1101385
547	5202192 50 9251 15172 136.00284 242.0005872 2 196 1007 1203 1052465
548	5202242 61 9252 15173 136.00284 242.0005872 2 0.0005872 0.0018848 0.002472 3.89727488e-06
549	5202303 49 9252 15173 136.00284 242.0005872 2 188 999 1187 1033345
550	5202352 61 9252 15173 136.00284 242.0005872 2 0.0005872 0.0018848 0.002472 3.89727488e-06
551	5202413 126 10056 16300 152 269 7 110 892 3339 2317385
552	5202539 52328 10056 17804 0.1 300 3000 0 71360 267120 14831264000
553	5254867 126 10056 16300 152 269 7 110 892 3339 2317385

