                                                                
version 3
run General-0-20221214-18:48:14-80027
attr configname General
attr datetime 20221214-18:48:14
attr datetimef 20221214-184814
attr experiment General
attr inifile omnetpp.ini
attr iterationvars "$bnum=int(uniform(2, 5)), $hnum=int(uniform(2, 5)), $xnum=int(uniform(1, 2))"
attr iterationvarsd bnum=int(uniform(2,_5))/hnum=int(uniform(2,_5))/xnum=int(uniform(1,_2))
attr iterationvarsf bnum=int(uniform(2,_5)),hnum=int(uniform(2,_5)),xnum=int(uniform(1,_2))-
attr measurement "$bnum=int(uniform(2, 5)), $hnum=int(uniform(2, 5)), $xnum=int(uniform(1, 2))"
attr network Network
attr processid 80027
attr repetition 0
attr replication #0
attr resultdir results
attr runnumber 0
attr seedset 0
itervar bnum "int(uniform(2, 5))"
itervar hnum "int(uniform(2, 5))"
itervar xnum "int(uniform(1, 2))"
config image-path ../../inet4.4/images
config network Network
config sim-time-limit 300s
config output-scalar-file results/scalars.sca
config output-vector-file results/vectors.vec
config seed-0-mt 1
config *.configurator.dumpAddresses true
config *.configurator.dumpTopology true
config *.configurator.dumpLinks true
config *.configurator.dumpRoutes true
config *.configurator.config "xmldoc(\"config.xml\")"
config *.visualizer.interfaceTableVisualizer.displayInterfaceTables true
config *.visualizer.interfaceTableVisualizer.nodeFilter "\"not (*router*)\""
config *.cableBandwidth 10Mbps
config *.cableLength 20km
config *.cableBandwidth.param-record-as-scalar true
config *.cableLength.param-record-as-scalar true
config *.*.ipv4.arp.typename GlobalArp
config *.*.ipv4.routingTable.netmaskRoutes "\"\""
config *.*router.eth[*].queue.typename DropTailQueue
config *.*router.eth[*].queue.packetCapacity 10
config *.server.numApps 1
config *.server.app[0].typename TcpServerAppX
config *.server.app[0].heartbeatThreshold 15
config *.bunker_number "int(uniform(2, 5))"
config *.host_number "int(uniform(2, 5))"
config *.nonExist_host_number "int(uniform(1, 2))"
config *.bunker_number.param-record-as-scalar true
config *.host_number.param-record-as-scalar true
config *.nonExist_host_number.param-record-as-scalar true
config *.bunkerhost[*].numApps 2
config *.bunkerhost[*].app[*].destAddress "\"server\""
config *.bunkerhost[*].app[*].connectAddress "\"server\""
config *.bunkerhost[*].app[0].sendInterval "int(uniform(2s, 5s))"
config *.bunkerhost[*].app[1].sendInterval "int(uniform(3s, 6s))"
config *.bunkerhost[*].app[0].typename TcpHeartBeatApp
config *.bunkerhost[*].app[1].typename TcpClientAppX
config *.bunkerhost[*].app[1].bunker_number "int(uniform(2, 5))"
config *.bunkerhost[*].app[1].host_number "int(uniform(2, 5))"
config *.bunkerhost[*].app[1].nonExist_host_number "int(uniform(1, 2))"

vector 0 Network.server.udp passedUpPk:vector(count) ETV
attr interpolationmode none
attr recordingmode vector(count)
attr source packetSentToUpper
attr title "packets passed up, count"
vector 1 Network.server.udp droppedPkWrongPort:vector(count) ETV
attr interpolationmode none
attr recordingmode vector(count)
attr source packetDropReasonIsNoPortFound(packetDropped)
attr title "packets dropped (wrong port), count"
vector 2 Network.server.udp droppedPkBadChecksum:vector(count) ETV
attr interpolationmode none
attr recordingmode vector(count)
attr source packetDropReasonIsIncorrectlyReceived(packetDropped)
attr title "packets dropped (checksum error), count"
vector 3 Network.bunkerhost[0].udp passedUpPk:vector(count) ETV
attr interpolationmode none
attr recordingmode vector(count)
attr source packetSentToUpper
attr title "packets passed up, count"
vector 4 Network.bunkerhost[0].udp droppedPkWrongPort:vector(count) ETV
attr interpolationmode none
attr recordingmode vector(count)
attr source packetDropReasonIsNoPortFound(packetDropped)
attr title "packets dropped (wrong port), count"
vector 5 Network.bunkerhost[0].udp droppedPkBadChecksum:vector(count) ETV
attr interpolationmode none
attr recordingmode vector(count)
attr source packetDropReasonIsIncorrectlyReceived(packetDropped)
attr title "packets dropped (checksum error), count"
vector 6 Network.bunkerhost[1].udp passedUpPk:vector(count) ETV
attr interpolationmode none
attr recordingmode vector(count)
attr source packetSentToUpper
attr title "packets passed up, count"
vector 7 Network.bunkerhost[1].udp droppedPkWrongPort:vector(count) ETV
attr interpolationmode none
attr recordingmode vector(count)
attr source packetDropReasonIsNoPortFound(packetDropped)
attr title "packets dropped (wrong port), count"
vector 8 Network.bunkerhost[1].udp droppedPkBadChecksum:vector(count) ETV
attr interpolationmode none
attr recordingmode vector(count)
attr source packetDropReasonIsIncorrectlyReceived(packetDropped)
attr title "packets dropped (checksum error), count"
vector 9 Network.bunkerhost[2].udp passedUpPk:vector(count) ETV
attr interpolationmode none
attr recordingmode vector(count)
attr source packetSentToUpper
attr title "packets passed up, count"
vector 10 Network.bunkerhost[2].udp droppedPkWrongPort:vector(count) ETV
attr interpolationmode none
attr recordingmode vector(count)
attr source packetDropReasonIsNoPortFound(packetDropped)
attr title "packets dropped (wrong port), count"
vector 11 Network.bunkerhost[2].udp droppedPkBadChecksum:vector(count) ETV
attr interpolationmode none
attr recordingmode vector(count)
attr source packetDropReasonIsIncorrectlyReceived(packetDropped)
attr title "packets dropped (checksum error), count"
vector 12 Network.bunkerhost[3].udp passedUpPk:vector(count) ETV
attr interpolationmode none
attr recordingmode vector(count)
attr source packetSentToUpper
attr title "packets passed up, count"
vector 13 Network.bunkerhost[3].udp droppedPkWrongPort:vector(count) ETV
attr interpolationmode none
attr recordingmode vector(count)
attr source packetDropReasonIsNoPortFound(packetDropped)
attr title "packets dropped (wrong port), count"
vector 14 Network.bunkerhost[3].udp droppedPkBadChecksum:vector(count) ETV
attr interpolationmode none
attr recordingmode vector(count)
attr source packetDropReasonIsIncorrectlyReceived(packetDropped)
attr title "packets dropped (checksum error), count"
vector 15 Network.bunkerhost[4].udp passedUpPk:vector(count) ETV
attr interpolationmode none
attr recordingmode vector(count)
attr source packetSentToUpper
attr title "packets passed up, count"
vector 16 Network.bunkerhost[4].udp droppedPkWrongPort:vector(count) ETV
attr interpolationmode none
attr recordingmode vector(count)
attr source packetDropReasonIsNoPortFound(packetDropped)
attr title "packets dropped (wrong port), count"
vector 17 Network.bunkerhost[4].udp droppedPkBadChecksum:vector(count) ETV
attr interpolationmode none
attr recordingmode vector(count)
attr source packetDropReasonIsIncorrectlyReceived(packetDropped)
attr title "packets dropped (checksum error), count"
vector 18 Network.bunkerhost[5].udp passedUpPk:vector(count) ETV
attr interpolationmode none
attr recordingmode vector(count)
attr source packetSentToUpper
attr title "packets passed up, count"
vector 19 Network.bunkerhost[5].udp droppedPkWrongPort:vector(count) ETV
attr interpolationmode none
attr recordingmode vector(count)
attr source packetDropReasonIsNoPortFound(packetDropped)
attr title "packets dropped (wrong port), count"
vector 20 Network.bunkerhost[5].udp droppedPkBadChecksum:vector(count) ETV
attr interpolationmode none
attr recordingmode vector(count)
attr source packetDropReasonIsIncorrectlyReceived(packetDropped)
attr title "packets dropped (checksum error), count"
vector 21 Network.bunkerhost[6].udp passedUpPk:vector(count) ETV
attr interpolationmode none
attr recordingmode vector(count)
attr source packetSentToUpper
attr title "packets passed up, count"
vector 22 Network.bunkerhost[6].udp droppedPkWrongPort:vector(count) ETV
attr interpolationmode none
attr recordingmode vector(count)
attr source packetDropReasonIsNoPortFound(packetDropped)
attr title "packets dropped (wrong port), count"
vector 23 Network.bunkerhost[6].udp droppedPkBadChecksum:vector(count) ETV
attr interpolationmode none
attr recordingmode vector(count)
attr source packetDropReasonIsIncorrectlyReceived(packetDropped)
attr title "packets dropped (checksum error), count"
vector 24 Network.bunkerhost[7].udp passedUpPk:vector(count) ETV
attr interpolationmode none
attr recordingmode vector(count)
attr source packetSentToUpper
attr title "packets passed up, count"
vector 25 Network.bunkerhost[7].udp droppedPkWrongPort:vector(count) ETV
attr interpolationmode none
attr recordingmode vector(count)
attr source packetDropReasonIsNoPortFound(packetDropped)
attr title "packets dropped (wrong port), count"
vector 26 Network.bunkerhost[7].udp droppedPkBadChecksum:vector(count) ETV
attr interpolationmode none
attr recordingmode vector(count)
attr source packetDropReasonIsIncorrectlyReceived(packetDropped)
attr title "packets dropped (checksum error), count"
vector 27 Network.bunkerhost[8].udp passedUpPk:vector(count) ETV
attr interpolationmode none
attr recordingmode vector(count)
attr source packetSentToUpper
attr title "packets passed up, count"
vector 28 Network.bunkerhost[8].udp droppedPkWrongPort:vector(count) ETV
attr interpolationmode none
attr recordingmode vector(count)
attr source packetDropReasonIsNoPortFound(packetDropped)
attr title "packets dropped (wrong port), count"
vector 29 Network.bunkerhost[8].udp droppedPkBadChecksum:vector(count) ETV
attr interpolationmode none
attr recordingmode vector(count)
attr source packetDropReasonIsIncorrectlyReceived(packetDropped)
attr title "packets dropped (checksum error), count"
vector 30 Network.bunkerhost[9].udp passedUpPk:vector(count) ETV
attr interpolationmode none
attr recordingmode vector(count)
attr source packetSentToUpper
attr title "packets passed up, count"
vector 31 Network.bunkerhost[9].udp droppedPkWrongPort:vector(count) ETV
attr interpolationmode none
attr recordingmode vector(count)
attr source packetDropReasonIsNoPortFound(packetDropped)
attr title "packets dropped (wrong port), count"
vector 32 Network.bunkerhost[9].udp droppedPkBadChecksum:vector(count) ETV
attr interpolationmode none
attr recordingmode vector(count)
attr source packetDropReasonIsIncorrectlyReceived(packetDropped)
attr title "packets dropped (checksum error), count"
vector 33 Network.bunkerhost[10].udp passedUpPk:vector(count) ETV
attr interpolationmode none
attr recordingmode vector(count)
attr source packetSentToUpper
attr title "packets passed up, count"
vector 34 Network.bunkerhost[10].udp droppedPkWrongPort:vector(count) ETV
attr interpolationmode none
attr recordingmode vector(count)
attr source packetDropReasonIsNoPortFound(packetDropped)
attr title "packets dropped (wrong port), count"
vector 35 Network.bunkerhost[10].udp droppedPkBadChecksum:vector(count) ETV
attr interpolationmode none
attr recordingmode vector(count)
attr source packetDropReasonIsIncorrectlyReceived(packetDropped)
attr title "packets dropped (checksum error), count"
vector 36 Network.bunkerhost[11].udp passedUpPk:vector(count) ETV
attr interpolationmode none
attr recordingmode vector(count)
attr source packetSentToUpper
attr title "packets passed up, count"
vector 37 Network.bunkerhost[11].udp droppedPkWrongPort:vector(count) ETV
attr interpolationmode none
attr recordingmode vector(count)
attr source packetDropReasonIsNoPortFound(packetDropped)
attr title "packets dropped (wrong port), count"
vector 38 Network.bunkerhost[11].udp droppedPkBadChecksum:vector(count) ETV
attr interpolationmode none
attr recordingmode vector(count)
attr source packetDropReasonIsIncorrectlyReceived(packetDropped)
attr title "packets dropped (checksum error), count"
vector 39 Network.bunkerhost[2].tcp.conn-37 tcpRcvQueueBytes:vector ETV
attr interpolationmode sample-hold
attr recordingmode vector
vector 40 Network.bunkerhost[2].tcp.conn-37 rcvAdv:vector ETV
attr interpolationmode sample-hold
attr recordingmode vector
vector 41 Network.bunkerhost[2].tcp.conn-37 rcvWnd:vector ETV
attr interpolationmode sample-hold
attr recordingmode vector
vector 42 Network.bunkerhost[2].tcp.conn-37 sndAck:vector ETV
attr interpolationmode sample-hold
attr recordingmode vector
vector 43 Network.bunkerhost[5].tcp.conn-38 tcpRcvQueueBytes:vector ETV
attr interpolationmode sample-hold
attr recordingmode vector
vector 44 Network.bunkerhost[5].tcp.conn-38 rcvAdv:vector ETV
attr interpolationmode sample-hold
attr recordingmode vector
vector 45 Network.bunkerhost[5].tcp.conn-38 rcvWnd:vector ETV
attr interpolationmode sample-hold
attr recordingmode vector
vector 46 Network.bunkerhost[5].tcp.conn-38 sndAck:vector ETV
attr interpolationmode sample-hold
attr recordingmode vector
vector 47 Network.bunkerhost[10].tcp.conn-39 tcpRcvQueueBytes:vector ETV
attr interpolationmode sample-hold
attr recordingmode vector
vector 48 Network.bunkerhost[10].tcp.conn-39 rcvAdv:vector ETV
attr interpolationmode sample-hold
attr recordingmode vector
vector 49 Network.bunkerhost[10].tcp.conn-39 rcvWnd:vector ETV
attr interpolationmode sample-hold
attr recordingmode vector
vector 50 Network.bunkerhost[10].tcp.conn-39 sndAck:vector ETV
attr interpolationmode sample-hold
attr recordingmode vector
vector 51 Network.bunkerhost[11].tcp.conn-40 tcpRcvQueueBytes:vector ETV
attr interpolationmode sample-hold
attr recordingmode vector
vector 52 Network.bunkerhost[11].tcp.conn-40 rcvAdv:vector ETV
attr interpolationmode sample-hold
attr recordingmode vector
vector 53 Network.bunkerhost[11].tcp.conn-40 rcvWnd:vector ETV
attr interpolationmode sample-hold
attr recordingmode vector
vector 54 Network.bunkerhost[11].tcp.conn-40 sndAck:vector ETV
attr interpolationmode sample-hold
attr recordingmode vector
vector 55 Network.bunkerhost[2].ethernet encapPk:vector(packetBytes) ETV
attr interpolationmode none
attr recordingmode vector(packetBytes)
attr source encapPk
attr title "packets encapsulated, packetBytes"
vector 56 Network.bunkerhost[5].ethernet encapPk:vector(packetBytes) ETV
attr interpolationmode none
attr recordingmode vector(packetBytes)
attr source encapPk
attr title "packets encapsulated, packetBytes"
vector 57 Network.bunkerhost[10].ethernet encapPk:vector(packetBytes) ETV
attr interpolationmode none
attr recordingmode vector(packetBytes)
attr source encapPk
attr title "packets encapsulated, packetBytes"
vector 58 Network.bunkerhost[11].ethernet encapPk:vector(packetBytes) ETV
attr interpolationmode none
attr recordingmode vector(packetBytes)
attr source encapPk
attr title "packets encapsulated, packetBytes"
vector 59 Network.bunkerhost[2].eth[0].queue incomingPacketLengths:vector ETV
attr interpolationmode none
attr recordingmode vector
attr source packetLength(packetPushStarted)
attr title "incoming packet lengths"
attr unit b
vector 60 Network.bunkerhost[2].eth[0].queue incomingDataRate:vector ETV
attr interpolationmode linear
attr recordingmode vector
attr source throughput(packetPushStarted)
attr title "incoming datarate"
attr unit bps
vector 61 Network.bunkerhost[2].eth[0].queue queueingTime:vector ETV
attr interpolationmode none
attr recordingmode vector
attr source queueingTime(packetPulled)
attr title "queueing times"
attr unit s
vector 62 Network.bunkerhost[2].eth[0].queue outgoingPacketLengths:vector ETV
attr interpolationmode none
attr recordingmode vector
attr source packetLength(packetPulled)
attr title "outgoing packet lengths"
attr unit b
vector 63 Network.bunkerhost[2].eth[0].queue outgoingDataRate:vector ETV
attr interpolationmode linear
attr recordingmode vector
attr source throughput(packetPulled)
attr title "outgoing datarate"
attr unit bps
vector 64 Network.bunkerhost[2].eth[0].mac packetReceivedFromUpper:vector(packetBytes) ETV
attr interpolationmode none
attr recordingmode vector(packetBytes)
attr source packetReceivedFromUpper
attr title "packet bytes from higher layer, packetBytes"
vector 65 Network.bunkerhost[2].eth[0].queue queueLength:vector ETV
attr autoWarmupFilter false
attr interpolationmode sample-hold
attr recordingmode vector
attr source "warmup(atomic(constant0(packetPushEnded) + count(packetPushStarted) - count(packetPulled) - count(packetRemoved) - count(packetDropped)))"
attr title "queue length"
attr unit pk
vector 66 Network.bunkerhost[2].eth[0].queue queueBitLength:vector ETV
attr autoWarmupFilter false
attr interpolationmode sample-hold
attr recordingmode vector
attr source "warmup(atomic(constant0(packetPushEnded) + sum(packetLength(packetPushStarted)) - sum(packetLength(packetPulled)) - sum(packetLength(packetRemoved)) - sum(packetLength(packetDropped))))"
attr title "queue bit length"
attr unit b
vector 67 Network.bunkerhost[5].eth[0].queue incomingPacketLengths:vector ETV
attr interpolationmode none
attr recordingmode vector
attr source packetLength(packetPushStarted)
attr title "incoming packet lengths"
attr unit b
vector 68 Network.bunkerhost[5].eth[0].queue incomingDataRate:vector ETV
attr interpolationmode linear
attr recordingmode vector
attr source throughput(packetPushStarted)
attr title "incoming datarate"
attr unit bps
vector 69 Network.bunkerhost[5].eth[0].queue queueingTime:vector ETV
attr interpolationmode none
attr recordingmode vector
attr source queueingTime(packetPulled)
attr title "queueing times"
attr unit s
vector 70 Network.bunkerhost[5].eth[0].queue outgoingPacketLengths:vector ETV
attr interpolationmode none
attr recordingmode vector
attr source packetLength(packetPulled)
attr title "outgoing packet lengths"
attr unit b
vector 71 Network.bunkerhost[5].eth[0].queue outgoingDataRate:vector ETV
attr interpolationmode linear
attr recordingmode vector
attr source throughput(packetPulled)
attr title "outgoing datarate"
attr unit bps
vector 72 Network.bunkerhost[5].eth[0].mac packetReceivedFromUpper:vector(packetBytes) ETV
attr interpolationmode none
attr recordingmode vector(packetBytes)
attr source packetReceivedFromUpper
attr title "packet bytes from higher layer, packetBytes"
vector 73 Network.bunkerhost[5].eth[0].queue queueLength:vector ETV
attr autoWarmupFilter false
attr interpolationmode sample-hold
attr recordingmode vector
attr source "warmup(atomic(constant0(packetPushEnded) + count(packetPushStarted) - count(packetPulled) - count(packetRemoved) - count(packetDropped)))"
attr title "queue length"
attr unit pk
vector 74 Network.bunkerhost[5].eth[0].queue queueBitLength:vector ETV
attr autoWarmupFilter false
attr interpolationmode sample-hold
attr recordingmode vector
attr source "warmup(atomic(constant0(packetPushEnded) + sum(packetLength(packetPushStarted)) - sum(packetLength(packetPulled)) - sum(packetLength(packetRemoved)) - sum(packetLength(packetDropped))))"
attr title "queue bit length"
attr unit b
vector 75 Network.bunkerhost[10].eth[0].queue incomingPacketLengths:vector ETV
attr interpolationmode none
attr recordingmode vector
attr source packetLength(packetPushStarted)
attr title "incoming packet lengths"
attr unit b
vector 76 Network.bunkerhost[10].eth[0].queue incomingDataRate:vector ETV
attr interpolationmode linear
attr recordingmode vector
attr source throughput(packetPushStarted)
attr title "incoming datarate"
attr unit bps
vector 77 Network.bunkerhost[10].eth[0].queue queueingTime:vector ETV
attr interpolationmode none
attr recordingmode vector
attr source queueingTime(packetPulled)
attr title "queueing times"
attr unit s
vector 78 Network.bunkerhost[10].eth[0].queue outgoingPacketLengths:vector ETV
attr interpolationmode none
attr recordingmode vector
attr source packetLength(packetPulled)
attr title "outgoing packet lengths"
attr unit b
vector 79 Network.bunkerhost[10].eth[0].queue outgoingDataRate:vector ETV
attr interpolationmode linear
attr recordingmode vector
attr source throughput(packetPulled)
attr title "outgoing datarate"
attr unit bps
vector 80 Network.bunkerhost[10].eth[0].mac packetReceivedFromUpper:vector(packetBytes) ETV
attr interpolationmode none
attr recordingmode vector(packetBytes)
attr source packetReceivedFromUpper
attr title "packet bytes from higher layer, packetBytes"
vector 81 Network.bunkerhost[10].eth[0].queue queueLength:vector ETV
attr autoWarmupFilter false
attr interpolationmode sample-hold
attr recordingmode vector
attr source "warmup(atomic(constant0(packetPushEnded) + count(packetPushStarted) - count(packetPulled) - count(packetRemoved) - count(packetDropped)))"
attr title "queue length"
attr unit pk
vector 82 Network.bunkerhost[10].eth[0].queue queueBitLength:vector ETV
attr autoWarmupFilter false
attr interpolationmode sample-hold
attr recordingmode vector
attr source "warmup(atomic(constant0(packetPushEnded) + sum(packetLength(packetPushStarted)) - sum(packetLength(packetPulled)) - sum(packetLength(packetRemoved)) - sum(packetLength(packetDropped))))"
attr title "queue bit length"
attr unit b
vector 83 Network.bunkerhost[11].eth[0].queue incomingPacketLengths:vector ETV
attr interpolationmode none
attr recordingmode vector
attr source packetLength(packetPushStarted)
attr title "incoming packet lengths"
attr unit b
vector 84 Network.bunkerhost[11].eth[0].queue incomingDataRate:vector ETV
attr interpolationmode linear
attr recordingmode vector
attr source throughput(packetPushStarted)
attr title "incoming datarate"
attr unit bps
vector 85 Network.bunkerhost[11].eth[0].queue queueingTime:vector ETV
attr interpolationmode none
attr recordingmode vector
attr source queueingTime(packetPulled)
attr title "queueing times"
attr unit s
vector 86 Network.bunkerhost[11].eth[0].queue outgoingPacketLengths:vector ETV
attr interpolationmode none
attr recordingmode vector
attr source packetLength(packetPulled)
attr title "outgoing packet lengths"
attr unit b
vector 87 Network.bunkerhost[11].eth[0].queue outgoingDataRate:vector ETV
attr interpolationmode linear
attr recordingmode vector
attr source throughput(packetPulled)
attr title "outgoing datarate"
attr unit bps
vector 88 Network.bunkerhost[11].eth[0].mac packetReceivedFromUpper:vector(packetBytes) ETV
attr interpolationmode none
attr recordingmode vector(packetBytes)
attr source packetReceivedFromUpper
attr title "packet bytes from higher layer, packetBytes"
vector 89 Network.bunkerhost[11].eth[0].queue queueLength:vector ETV
attr autoWarmupFilter false
attr interpolationmode sample-hold
attr recordingmode vector
attr source "warmup(atomic(constant0(packetPushEnded) + count(packetPushStarted) - count(packetPulled) - count(packetRemoved) - count(packetDropped)))"
attr title "queue length"
attr unit pk
vector 90 Network.bunkerhost[11].eth[0].queue queueBitLength:vector ETV
attr autoWarmupFilter false
attr interpolationmode sample-hold
attr recordingmode vector
attr source "warmup(atomic(constant0(packetPushEnded) + sum(packetLength(packetPushStarted)) - sum(packetLength(packetPulled)) - sum(packetLength(packetRemoved)) - sum(packetLength(packetDropped))))"
attr title "queue bit length"
attr unit b
vector 91 Network.bunkerhost[2].eth[0].mac txPk:vector(packetBytes) ETV
attr interpolationmode none
attr recordingmode vector(packetBytes)
attr source packetSentToLower
attr title "packets transmitted, packetBytes"
vector 92 Network.bunkerhost[5].eth[0].mac txPk:vector(packetBytes) ETV
attr interpolationmode none
attr recordingmode vector(packetBytes)
attr source packetSentToLower
attr title "packets transmitted, packetBytes"
vector 93 Network.bunkerhost[10].eth[0].mac txPk:vector(packetBytes) ETV
attr interpolationmode none
attr recordingmode vector(packetBytes)
attr source packetSentToLower
attr title "packets transmitted, packetBytes"
vector 94 Network.bunkerhost[11].eth[0].mac txPk:vector(packetBytes) ETV
attr interpolationmode none
attr recordingmode vector(packetBytes)
attr source packetSentToLower
attr title "packets transmitted, packetBytes"
vector 95 Network.bunkerrouter[0].eth[3].mac rxPkOk:vector(packetBytes) ETV
attr interpolationmode none
attr recordingmode vector(packetBytes)
attr source rxPkOk
attr title "packets received OK, packetBytes"
vector 96 Network.bunkerrouter[0].eth[3].mac passedUpPk:vector(packetBytes) ETV
attr interpolationmode none
attr recordingmode vector(packetBytes)
attr source packetSentToUpper
attr title "packets passed to higher layer, packetBytes"
vector 97 Network.bunkerrouter[1].eth[2].mac rxPkOk:vector(packetBytes) ETV
attr interpolationmode none
attr recordingmode vector(packetBytes)
attr source rxPkOk
attr title "packets received OK, packetBytes"
vector 98 Network.bunkerrouter[1].eth[2].mac passedUpPk:vector(packetBytes) ETV
attr interpolationmode none
attr recordingmode vector(packetBytes)
attr source packetSentToUpper
attr title "packets passed to higher layer, packetBytes"
vector 99 Network.bunkerrouter[2].eth[3].mac rxPkOk:vector(packetBytes) ETV
attr interpolationmode none
attr recordingmode vector(packetBytes)
attr source rxPkOk
attr title "packets received OK, packetBytes"
vector 100 Network.bunkerrouter[2].eth[3].mac passedUpPk:vector(packetBytes) ETV
attr interpolationmode none
attr recordingmode vector(packetBytes)
attr source packetSentToUpper
attr title "packets passed to higher layer, packetBytes"
vector 101 Network.bunkerrouter[2].eth[4].mac rxPkOk:vector(packetBytes) ETV
attr interpolationmode none
attr recordingmode vector(packetBytes)
attr source rxPkOk
attr title "packets received OK, packetBytes"
vector 102 Network.bunkerrouter[2].eth[4].mac passedUpPk:vector(packetBytes) ETV
attr interpolationmode none
attr recordingmode vector(packetBytes)
attr source packetSentToUpper
attr title "packets passed to higher layer, packetBytes"
vector 103 Network.bunkerrouter[0].ethernet decapPk:vector(packetBytes) ETV
attr interpolationmode none
attr recordingmode vector(packetBytes)
attr source decapPk
attr title "packets decapsulated, packetBytes"
vector 104 Network.bunkerrouter[1].ethernet decapPk:vector(packetBytes) ETV
attr interpolationmode none
attr recordingmode vector(packetBytes)
attr source decapPk
attr title "packets decapsulated, packetBytes"
vector 105 Network.bunkerrouter[2].ethernet decapPk:vector(packetBytes) ETV
attr interpolationmode none
attr recordingmode vector(packetBytes)
attr source decapPk
attr title "packets decapsulated, packetBytes"
vector 106 Network.bunkerrouter[0].ethernet encapPk:vector(packetBytes) ETV
attr interpolationmode none
attr recordingmode vector(packetBytes)
attr source encapPk
attr title "packets encapsulated, packetBytes"
vector 107 Network.bunkerrouter[1].ethernet encapPk:vector(packetBytes) ETV
attr interpolationmode none
attr recordingmode vector(packetBytes)
attr source encapPk
attr title "packets encapsulated, packetBytes"
vector 108 Network.bunkerrouter[2].ethernet encapPk:vector(packetBytes) ETV
attr interpolationmode none
attr recordingmode vector(packetBytes)
attr source encapPk
attr title "packets encapsulated, packetBytes"
vector 109 Network.bunkerrouter[0].eth[0].queue incomingPacketLengths:vector ETV
attr interpolationmode none
attr recordingmode vector
attr source packetLength(packetPushStarted)
attr title "incoming packet lengths"
attr unit b
vector 110 Network.bunkerrouter[0].eth[0].queue incomingDataRate:vector ETV
attr interpolationmode linear
attr recordingmode vector
attr source throughput(packetPushStarted)
attr title "incoming datarate"
attr unit bps
vector 111 Network.bunkerrouter[0].eth[0].queue queueingTime:vector ETV
attr interpolationmode none
attr recordingmode vector
attr source queueingTime(packetPulled)
attr title "queueing times"
attr unit s
vector 112 Network.bunkerrouter[0].eth[0].queue outgoingPacketLengths:vector ETV
attr interpolationmode none
attr recordingmode vector
attr source packetLength(packetPulled)
attr title "outgoing packet lengths"
attr unit b
vector 113 Network.bunkerrouter[0].eth[0].queue outgoingDataRate:vector ETV
attr interpolationmode linear
attr recordingmode vector
attr source throughput(packetPulled)
attr title "outgoing datarate"
attr unit bps
vector 114 Network.bunkerrouter[0].eth[0].mac packetReceivedFromUpper:vector(packetBytes) ETV
attr interpolationmode none
attr recordingmode vector(packetBytes)
attr source packetReceivedFromUpper
attr title "packet bytes from higher layer, packetBytes"
vector 115 Network.bunkerrouter[0].eth[0].queue queueLength:vector ETV
attr autoWarmupFilter false
attr interpolationmode sample-hold
attr recordingmode vector
attr source "warmup(atomic(constant0(packetPushEnded) + count(packetPushStarted) - count(packetPulled) - count(packetRemoved) - count(packetDropped)))"
attr title "queue length"
attr unit pk
vector 116 Network.bunkerrouter[0].eth[0].queue queueBitLength:vector ETV
attr autoWarmupFilter false
attr interpolationmode sample-hold
attr recordingmode vector
attr source "warmup(atomic(constant0(packetPushEnded) + sum(packetLength(packetPushStarted)) - sum(packetLength(packetPulled)) - sum(packetLength(packetRemoved)) - sum(packetLength(packetDropped))))"
attr title "queue bit length"
attr unit b
vector 117 Network.bunkerrouter[1].eth[0].queue incomingPacketLengths:vector ETV
attr interpolationmode none
attr recordingmode vector
attr source packetLength(packetPushStarted)
attr title "incoming packet lengths"
attr unit b
vector 118 Network.bunkerrouter[1].eth[0].queue incomingDataRate:vector ETV
attr interpolationmode linear
attr recordingmode vector
attr source throughput(packetPushStarted)
attr title "incoming datarate"
attr unit bps
vector 119 Network.bunkerrouter[1].eth[0].queue queueingTime:vector ETV
attr interpolationmode none
attr recordingmode vector
attr source queueingTime(packetPulled)
attr title "queueing times"
attr unit s
vector 120 Network.bunkerrouter[1].eth[0].queue outgoingPacketLengths:vector ETV
attr interpolationmode none
attr recordingmode vector
attr source packetLength(packetPulled)
attr title "outgoing packet lengths"
attr unit b
vector 121 Network.bunkerrouter[1].eth[0].queue outgoingDataRate:vector ETV
attr interpolationmode linear
attr recordingmode vector
attr source throughput(packetPulled)
attr title "outgoing datarate"
attr unit bps
vector 122 Network.bunkerrouter[1].eth[0].mac packetReceivedFromUpper:vector(packetBytes) ETV
attr interpolationmode none
attr recordingmode vector(packetBytes)
attr source packetReceivedFromUpper
attr title "packet bytes from higher layer, packetBytes"
vector 123 Network.bunkerrouter[1].eth[0].queue queueLength:vector ETV
attr autoWarmupFilter false
attr interpolationmode sample-hold
attr recordingmode vector
attr source "warmup(atomic(constant0(packetPushEnded) + count(packetPushStarted) - count(packetPulled) - count(packetRemoved) - count(packetDropped)))"
attr title "queue length"
attr unit pk
vector 124 Network.bunkerrouter[1].eth[0].queue queueBitLength:vector ETV
attr autoWarmupFilter false
attr interpolationmode sample-hold
attr recordingmode vector
attr source "warmup(atomic(constant0(packetPushEnded) + sum(packetLength(packetPushStarted)) - sum(packetLength(packetPulled)) - sum(packetLength(packetRemoved)) - sum(packetLength(packetDropped))))"
attr title "queue bit length"
attr unit b
vector 125 Network.bunkerrouter[2].eth[0].queue incomingPacketLengths:vector ETV
attr interpolationmode none
attr recordingmode vector
attr source packetLength(packetPushStarted)
attr title "incoming packet lengths"
attr unit b
vector 126 Network.bunkerrouter[2].eth[0].queue incomingDataRate:vector ETV
attr interpolationmode linear
attr recordingmode vector
attr source throughput(packetPushStarted)
attr title "incoming datarate"
attr unit bps
vector 127 Network.bunkerrouter[2].eth[0].queue queueingTime:vector ETV
attr interpolationmode none
attr recordingmode vector
attr source queueingTime(packetPulled)
attr title "queueing times"
attr unit s
vector 128 Network.bunkerrouter[2].eth[0].queue outgoingPacketLengths:vector ETV
attr interpolationmode none
attr recordingmode vector
attr source packetLength(packetPulled)
attr title "outgoing packet lengths"
attr unit b
vector 129 Network.bunkerrouter[2].eth[0].queue outgoingDataRate:vector ETV
attr interpolationmode linear
attr recordingmode vector
attr source throughput(packetPulled)
attr title "outgoing datarate"
attr unit bps
vector 130 Network.bunkerrouter[2].eth[0].mac packetReceivedFromUpper:vector(packetBytes) ETV
attr interpolationmode none
attr recordingmode vector(packetBytes)
attr source packetReceivedFromUpper
attr title "packet bytes from higher layer, packetBytes"
vector 131 Network.bunkerrouter[2].eth[0].queue queueLength:vector ETV
attr autoWarmupFilter false
attr interpolationmode sample-hold
attr recordingmode vector
attr source "warmup(atomic(constant0(packetPushEnded) + count(packetPushStarted) - count(packetPulled) - count(packetRemoved) - count(packetDropped)))"
attr title "queue length"
attr unit pk
vector 132 Network.bunkerrouter[2].eth[0].queue queueBitLength:vector ETV
attr autoWarmupFilter false
attr interpolationmode sample-hold
attr recordingmode vector
attr source "warmup(atomic(constant0(packetPushEnded) + sum(packetLength(packetPushStarted)) - sum(packetLength(packetPulled)) - sum(packetLength(packetRemoved)) - sum(packetLength(packetDropped))))"
attr title "queue bit length"
attr unit b
vector 133 Network.bunkerrouter[0].eth[0].mac txPk:vector(packetBytes) ETV
attr interpolationmode none
attr recordingmode vector(packetBytes)
attr source packetSentToLower
attr title "packets transmitted, packetBytes"
vector 134 Network.bunkerrouter[1].eth[0].mac txPk:vector(packetBytes) ETV
attr interpolationmode none
attr recordingmode vector(packetBytes)
attr source packetSentToLower
attr title "packets transmitted, packetBytes"
vector 135 Network.bunkerrouter[2].eth[0].mac txPk:vector(packetBytes) ETV
attr interpolationmode none
attr recordingmode vector(packetBytes)
attr source packetSentToLower
attr title "packets transmitted, packetBytes"
vector 136 Network.mainrouter.eth[1].mac rxPkOk:vector(packetBytes) ETV
attr interpolationmode none
attr recordingmode vector(packetBytes)
attr source rxPkOk
attr title "packets received OK, packetBytes"
vector 137 Network.mainrouter.eth[1].mac passedUpPk:vector(packetBytes) ETV
attr interpolationmode none
attr recordingmode vector(packetBytes)
attr source packetSentToUpper
attr title "packets passed to higher layer, packetBytes"
vector 138 Network.mainrouter.eth[2].mac rxPkOk:vector(packetBytes) ETV
attr interpolationmode none
attr recordingmode vector(packetBytes)
attr source rxPkOk
attr title "packets received OK, packetBytes"
vector 139 Network.mainrouter.eth[2].mac passedUpPk:vector(packetBytes) ETV
attr interpolationmode none
attr recordingmode vector(packetBytes)
attr source packetSentToUpper
attr title "packets passed to higher layer, packetBytes"
vector 140 Network.mainrouter.eth[3].mac rxPkOk:vector(packetBytes) ETV
attr interpolationmode none
attr recordingmode vector(packetBytes)
attr source rxPkOk
attr title "packets received OK, packetBytes"
vector 141 Network.mainrouter.eth[3].mac passedUpPk:vector(packetBytes) ETV
attr interpolationmode none
attr recordingmode vector(packetBytes)
attr source packetSentToUpper
attr title "packets passed to higher layer, packetBytes"
vector 142 Network.mainrouter.ethernet decapPk:vector(packetBytes) ETV
attr interpolationmode none
attr recordingmode vector(packetBytes)
attr source decapPk
attr title "packets decapsulated, packetBytes"
vector 143 Network.mainrouter.ethernet encapPk:vector(packetBytes) ETV
attr interpolationmode none
attr recordingmode vector(packetBytes)
attr source encapPk
attr title "packets encapsulated, packetBytes"
vector 144 Network.mainrouter.eth[0].queue incomingPacketLengths:vector ETV
attr interpolationmode none
attr recordingmode vector
attr source packetLength(packetPushStarted)
attr title "incoming packet lengths"
attr unit b
vector 145 Network.mainrouter.eth[0].queue incomingDataRate:vector ETV
attr interpolationmode linear
attr recordingmode vector
attr source throughput(packetPushStarted)
attr title "incoming datarate"
attr unit bps
vector 146 Network.mainrouter.eth[0].queue queueingTime:vector ETV
attr interpolationmode none
attr recordingmode vector
attr source queueingTime(packetPulled)
attr title "queueing times"
attr unit s
vector 147 Network.mainrouter.eth[0].queue outgoingPacketLengths:vector ETV
attr interpolationmode none
attr recordingmode vector
attr source packetLength(packetPulled)
attr title "outgoing packet lengths"
attr unit b
vector 148 Network.mainrouter.eth[0].queue outgoingDataRate:vector ETV
attr interpolationmode linear
attr recordingmode vector
attr source throughput(packetPulled)
attr title "outgoing datarate"
attr unit bps
vector 149 Network.mainrouter.eth[0].mac packetReceivedFromUpper:vector(packetBytes) ETV
attr interpolationmode none
attr recordingmode vector(packetBytes)
attr source packetReceivedFromUpper
attr title "packet bytes from higher layer, packetBytes"
vector 150 Network.mainrouter.eth[0].queue queueLength:vector ETV
attr autoWarmupFilter false
attr interpolationmode sample-hold
attr recordingmode vector
attr source "warmup(atomic(constant0(packetPushEnded) + count(packetPushStarted) - count(packetPulled) - count(packetRemoved) - count(packetDropped)))"
attr title "queue length"
attr unit pk
vector 151 Network.mainrouter.eth[0].queue queueBitLength:vector ETV
attr autoWarmupFilter false
attr interpolationmode sample-hold
attr recordingmode vector
attr source "warmup(atomic(constant0(packetPushEnded) + sum(packetLength(packetPushStarted)) - sum(packetLength(packetPulled)) - sum(packetLength(packetRemoved)) - sum(packetLength(packetDropped))))"
attr title "queue bit length"
attr unit b
vector 152 Network.mainrouter.eth[0].mac txPk:vector(packetBytes) ETV
attr interpolationmode none
attr recordingmode vector(packetBytes)
attr source packetSentToLower
attr title "packets transmitted, packetBytes"
vector 153 Network.server.eth[0].mac rxPkOk:vector(packetBytes) ETV
attr interpolationmode none
attr recordingmode vector(packetBytes)
attr source rxPkOk
attr title "packets received OK, packetBytes"
vector 154 Network.server.eth[0].mac passedUpPk:vector(packetBytes) ETV
attr interpolationmode none
attr recordingmode vector(packetBytes)
attr source packetSentToUpper
attr title "packets passed to higher layer, packetBytes"
vector 155 Network.server.ethernet decapPk:vector(packetBytes) ETV
attr interpolationmode none
attr recordingmode vector(packetBytes)
attr source decapPk
attr title "packets decapsulated, packetBytes"
vector 156 Network.server.tcp.conn-0 rcvSeq:vector ETV
attr interpolationmode sample-hold
attr recordingmode vector
vector 157 Network.server.tcp.conn-0 rcvAck:vector ETV
attr interpolationmode sample-hold
attr recordingmode vector
vector 158 Network.server.tcp.conn-0 tcpRcvPayloadBytes:vector ETV
attr interpolationmode sample-hold
attr recordingmode vector
vector 159 Network.server.tcp.conn-41 rcvAdv:vector ETV
attr interpolationmode sample-hold
attr recordingmode vector
vector 160 Network.server.tcp.conn-41 sndWnd:vector ETV
attr interpolationmode sample-hold
attr recordingmode vector
vector 161 Network.server.tcp.conn-41 tcpRcvQueueBytes:vector ETV
attr interpolationmode sample-hold
attr recordingmode vector
vector 162 Network.server.tcp.conn-41 rcvWnd:vector ETV
attr interpolationmode sample-hold
attr recordingmode vector
vector 163 Network.server.tcp.conn-41 sndAck:vector ETV
attr interpolationmode sample-hold
attr recordingmode vector
vector 164 Network.server.ethernet encapPk:vector(packetBytes) ETV
attr interpolationmode none
attr recordingmode vector(packetBytes)
attr source encapPk
attr title "packets encapsulated, packetBytes"
vector 165 Network.server.eth[0].queue incomingPacketLengths:vector ETV
attr interpolationmode none
attr recordingmode vector
attr source packetLength(packetPushStarted)
attr title "incoming packet lengths"
attr unit b
vector 166 Network.server.eth[0].queue incomingDataRate:vector ETV
attr interpolationmode linear
attr recordingmode vector
attr source throughput(packetPushStarted)
attr title "incoming datarate"
attr unit bps
vector 167 Network.server.eth[0].queue queueingTime:vector ETV
attr interpolationmode none
attr recordingmode vector
attr source queueingTime(packetPulled)
attr title "queueing times"
attr unit s
vector 168 Network.server.eth[0].queue outgoingPacketLengths:vector ETV
attr interpolationmode none
attr recordingmode vector
attr source packetLength(packetPulled)
attr title "outgoing packet lengths"
attr unit b
vector 169 Network.server.eth[0].queue outgoingDataRate:vector ETV
attr interpolationmode linear
attr recordingmode vector
attr source throughput(packetPulled)
attr title "outgoing datarate"
attr unit bps
vector 170 Network.server.eth[0].mac packetReceivedFromUpper:vector(packetBytes) ETV
attr interpolationmode none
attr recordingmode vector(packetBytes)
attr source packetReceivedFromUpper
attr title "packet bytes from higher layer, packetBytes"
vector 171 Network.server.eth[0].queue queueLength:vector ETV
attr autoWarmupFilter false
attr interpolationmode sample-hold
attr recordingmode vector
attr source "warmup(atomic(constant0(packetPushEnded) + count(packetPushStarted) - count(packetPulled) - count(packetRemoved) - count(packetDropped)))"
attr title "queue length"
attr unit pk
vector 172 Network.server.eth[0].queue queueBitLength:vector ETV
attr autoWarmupFilter false
attr interpolationmode sample-hold
attr recordingmode vector
attr source "warmup(atomic(constant0(packetPushEnded) + sum(packetLength(packetPushStarted)) - sum(packetLength(packetPulled)) - sum(packetLength(packetRemoved)) - sum(packetLength(packetDropped))))"
attr title "queue bit length"
attr unit b
vector 173 Network.server.eth[0].mac txPk:vector(packetBytes) ETV
attr interpolationmode none
attr recordingmode vector(packetBytes)
attr source packetSentToLower
attr title "packets transmitted, packetBytes"
vector 174 Network.server.tcp.conn-42 rcvAdv:vector ETV
attr interpolationmode sample-hold
attr recordingmode vector
vector 175 Network.server.tcp.conn-42 sndWnd:vector ETV
attr interpolationmode sample-hold
attr recordingmode vector
vector 176 Network.server.tcp.conn-42 tcpRcvQueueBytes:vector ETV
attr interpolationmode sample-hold
attr recordingmode vector
vector 177 Network.server.tcp.conn-42 rcvWnd:vector ETV
attr interpolationmode sample-hold
attr recordingmode vector
vector 178 Network.server.tcp.conn-42 sndAck:vector ETV
attr interpolationmode sample-hold
attr recordingmode vector
vector 179 Network.server.tcp.conn-43 rcvAdv:vector ETV
attr interpolationmode sample-hold
attr recordingmode vector
vector 180 Network.server.tcp.conn-43 sndWnd:vector ETV
attr interpolationmode sample-hold
attr recordingmode vector
vector 181 Network.server.tcp.conn-43 tcpRcvQueueBytes:vector ETV
attr interpolationmode sample-hold
attr recordingmode vector
vector 182 Network.server.tcp.conn-43 rcvWnd:vector ETV
attr interpolationmode sample-hold
attr recordingmode vector
vector 183 Network.server.tcp.conn-43 sndAck:vector ETV
attr interpolationmode sample-hold
attr recordingmode vector
vector 184 Network.mainrouter.eth[0].mac rxPkOk:vector(packetBytes) ETV
attr interpolationmode none
attr recordingmode vector(packetBytes)
attr source rxPkOk
attr title "packets received OK, packetBytes"
vector 185 Network.mainrouter.eth[0].mac passedUpPk:vector(packetBytes) ETV
attr interpolationmode none
attr recordingmode vector(packetBytes)
attr source packetSentToUpper
attr title "packets passed to higher layer, packetBytes"
vector 186 Network.mainrouter.eth[1].queue incomingPacketLengths:vector ETV
attr interpolationmode none
attr recordingmode vector
attr source packetLength(packetPushStarted)
attr title "incoming packet lengths"
attr unit b
vector 187 Network.mainrouter.eth[1].queue incomingDataRate:vector ETV
attr interpolationmode linear
attr recordingmode vector
attr source throughput(packetPushStarted)
attr title "incoming datarate"
attr unit bps
vector 188 Network.mainrouter.eth[1].queue queueingTime:vector ETV
attr interpolationmode none
attr recordingmode vector
attr source queueingTime(packetPulled)
attr title "queueing times"
attr unit s
vector 189 Network.mainrouter.eth[1].queue outgoingPacketLengths:vector ETV
attr interpolationmode none
attr recordingmode vector
attr source packetLength(packetPulled)
attr title "outgoing packet lengths"
attr unit b
vector 190 Network.mainrouter.eth[1].queue outgoingDataRate:vector ETV
attr interpolationmode linear
attr recordingmode vector
attr source throughput(packetPulled)
attr title "outgoing datarate"
attr unit bps
vector 191 Network.mainrouter.eth[1].mac packetReceivedFromUpper:vector(packetBytes) ETV
attr interpolationmode none
attr recordingmode vector(packetBytes)
attr source packetReceivedFromUpper
attr title "packet bytes from higher layer, packetBytes"
vector 192 Network.mainrouter.eth[1].queue queueLength:vector ETV
attr autoWarmupFilter false
attr interpolationmode sample-hold
attr recordingmode vector
attr source "warmup(atomic(constant0(packetPushEnded) + count(packetPushStarted) - count(packetPulled) - count(packetRemoved) - count(packetDropped)))"
attr title "queue length"
attr unit pk
vector 193 Network.mainrouter.eth[1].queue queueBitLength:vector ETV
attr autoWarmupFilter false
attr interpolationmode sample-hold
attr recordingmode vector
attr source "warmup(atomic(constant0(packetPushEnded) + sum(packetLength(packetPushStarted)) - sum(packetLength(packetPulled)) - sum(packetLength(packetRemoved)) - sum(packetLength(packetDropped))))"
attr title "queue bit length"
attr unit b
vector 194 Network.server.tcp.conn-44 rcvAdv:vector ETV
attr interpolationmode sample-hold
attr recordingmode vector
vector 195 Network.server.tcp.conn-44 sndWnd:vector ETV
attr interpolationmode sample-hold
attr recordingmode vector
vector 196 Network.server.tcp.conn-44 tcpRcvQueueBytes:vector ETV
attr interpolationmode sample-hold
attr recordingmode vector
vector 197 Network.server.tcp.conn-44 rcvWnd:vector ETV
attr interpolationmode sample-hold
attr recordingmode vector
vector 198 Network.server.tcp.conn-44 sndAck:vector ETV
attr interpolationmode sample-hold
attr recordingmode vector
vector 199 Network.mainrouter.eth[1].mac txPk:vector(packetBytes) ETV
attr interpolationmode none
attr recordingmode vector(packetBytes)
attr source packetSentToLower
attr title "packets transmitted, packetBytes"
vector 200 Network.mainrouter.eth[2].queue incomingPacketLengths:vector ETV
attr interpolationmode none
attr recordingmode vector
attr source packetLength(packetPushStarted)
attr title "incoming packet lengths"
attr unit b
vector 201 Network.mainrouter.eth[2].queue incomingDataRate:vector ETV
attr interpolationmode linear
attr recordingmode vector
attr source throughput(packetPushStarted)
attr title "incoming datarate"
attr unit bps
vector 202 Network.mainrouter.eth[2].queue queueingTime:vector ETV
attr interpolationmode none
attr recordingmode vector
attr source queueingTime(packetPulled)
attr title "queueing times"
attr unit s
vector 203 Network.mainrouter.eth[2].queue outgoingPacketLengths:vector ETV
attr interpolationmode none
attr recordingmode vector
attr source packetLength(packetPulled)
attr title "outgoing packet lengths"
attr unit b
vector 204 Network.mainrouter.eth[2].queue outgoingDataRate:vector ETV
attr interpolationmode linear
attr recordingmode vector
attr source throughput(packetPulled)
attr title "outgoing datarate"
attr unit bps
vector 205 Network.mainrouter.eth[2].mac packetReceivedFromUpper:vector(packetBytes) ETV
attr interpolationmode none
attr recordingmode vector(packetBytes)
attr source packetReceivedFromUpper
attr title "packet bytes from higher layer, packetBytes"
vector 206 Network.mainrouter.eth[2].queue queueLength:vector ETV
attr autoWarmupFilter false
attr interpolationmode sample-hold
attr recordingmode vector
attr source "warmup(atomic(constant0(packetPushEnded) + count(packetPushStarted) - count(packetPulled) - count(packetRemoved) - count(packetDropped)))"
attr title "queue length"
attr unit pk
vector 207 Network.mainrouter.eth[2].queue queueBitLength:vector ETV
attr autoWarmupFilter false
attr interpolationmode sample-hold
attr recordingmode vector
attr source "warmup(atomic(constant0(packetPushEnded) + sum(packetLength(packetPushStarted)) - sum(packetLength(packetPulled)) - sum(packetLength(packetRemoved)) - sum(packetLength(packetDropped))))"
attr title "queue bit length"
attr unit b
vector 208 Network.mainrouter.eth[2].mac txPk:vector(packetBytes) ETV
attr interpolationmode none
attr recordingmode vector(packetBytes)
attr source packetSentToLower
attr title "packets transmitted, packetBytes"
vector 209 Network.mainrouter.eth[3].queue incomingPacketLengths:vector ETV
attr interpolationmode none
attr recordingmode vector
attr source packetLength(packetPushStarted)
attr title "incoming packet lengths"
attr unit b
vector 210 Network.mainrouter.eth[3].queue incomingDataRate:vector ETV
attr interpolationmode linear
attr recordingmode vector
attr source throughput(packetPushStarted)
attr title "incoming datarate"
attr unit bps
vector 211 Network.mainrouter.eth[3].queue queueingTime:vector ETV
attr interpolationmode none
attr recordingmode vector
attr source queueingTime(packetPulled)
attr title "queueing times"
attr unit s
vector 212 Network.mainrouter.eth[3].queue outgoingPacketLengths:vector ETV
attr interpolationmode none
attr recordingmode vector
attr source packetLength(packetPulled)
attr title "outgoing packet lengths"
attr unit b
vector 213 Network.mainrouter.eth[3].queue outgoingDataRate:vector ETV
attr interpolationmode linear
attr recordingmode vector
attr source throughput(packetPulled)
attr title "outgoing datarate"
attr unit bps
vector 214 Network.mainrouter.eth[3].mac packetReceivedFromUpper:vector(packetBytes) ETV
attr interpolationmode none
attr recordingmode vector(packetBytes)
attr source packetReceivedFromUpper
attr title "packet bytes from higher layer, packetBytes"
vector 215 Network.mainrouter.eth[3].queue queueLength:vector ETV
attr autoWarmupFilter false
attr interpolationmode sample-hold
attr recordingmode vector
attr source "warmup(atomic(constant0(packetPushEnded) + count(packetPushStarted) - count(packetPulled) - count(packetRemoved) - count(packetDropped)))"
attr title "queue length"
attr unit pk
vector 216 Network.mainrouter.eth[3].queue queueBitLength:vector ETV
attr autoWarmupFilter false
attr interpolationmode sample-hold
attr recordingmode vector
attr source "warmup(atomic(constant0(packetPushEnded) + sum(packetLength(packetPushStarted)) - sum(packetLength(packetPulled)) - sum(packetLength(packetRemoved)) - sum(packetLength(packetDropped))))"
attr title "queue bit length"
attr unit b
vector 217 Network.bunkerrouter[0].eth[0].mac rxPkOk:vector(packetBytes) ETV
attr interpolationmode none
attr recordingmode vector(packetBytes)
attr source rxPkOk
attr title "packets received OK, packetBytes"
vector 218 Network.bunkerrouter[0].eth[0].mac passedUpPk:vector(packetBytes) ETV
attr interpolationmode none
attr recordingmode vector(packetBytes)
attr source packetSentToUpper
attr title "packets passed to higher layer, packetBytes"
vector 219 Network.bunkerrouter[0].eth[3].queue incomingPacketLengths:vector ETV
attr interpolationmode none
attr recordingmode vector
attr source packetLength(packetPushStarted)
attr title "incoming packet lengths"
attr unit b
vector 220 Network.bunkerrouter[0].eth[3].queue incomingDataRate:vector ETV
attr interpolationmode linear
attr recordingmode vector
attr source throughput(packetPushStarted)
attr title "incoming datarate"
attr unit bps
vector 221 Network.bunkerrouter[0].eth[3].queue queueingTime:vector ETV
attr interpolationmode none
attr recordingmode vector
attr source queueingTime(packetPulled)
attr title "queueing times"
attr unit s
vector 222 Network.bunkerrouter[0].eth[3].queue outgoingPacketLengths:vector ETV
attr interpolationmode none
attr recordingmode vector
attr source packetLength(packetPulled)
attr title "outgoing packet lengths"
attr unit b
vector 223 Network.bunkerrouter[0].eth[3].queue outgoingDataRate:vector ETV
attr interpolationmode linear
attr recordingmode vector
attr source throughput(packetPulled)
attr title "outgoing datarate"
attr unit bps
vector 224 Network.bunkerrouter[0].eth[3].mac packetReceivedFromUpper:vector(packetBytes) ETV
attr interpolationmode none
attr recordingmode vector(packetBytes)
attr source packetReceivedFromUpper
attr title "packet bytes from higher layer, packetBytes"
vector 225 Network.bunkerrouter[0].eth[3].queue queueLength:vector ETV
attr autoWarmupFilter false
attr interpolationmode sample-hold
attr recordingmode vector
attr source "warmup(atomic(constant0(packetPushEnded) + count(packetPushStarted) - count(packetPulled) - count(packetRemoved) - count(packetDropped)))"
attr title "queue length"
attr unit pk
vector 226 Network.bunkerrouter[0].eth[3].queue queueBitLength:vector ETV
attr autoWarmupFilter false
attr interpolationmode sample-hold
attr recordingmode vector
attr source "warmup(atomic(constant0(packetPushEnded) + sum(packetLength(packetPushStarted)) - sum(packetLength(packetPulled)) - sum(packetLength(packetRemoved)) - sum(packetLength(packetDropped))))"
attr title "queue bit length"
attr unit b
vector 227 Network.mainrouter.eth[3].mac txPk:vector(packetBytes) ETV
attr interpolationmode none
attr recordingmode vector(packetBytes)
attr source packetSentToLower
attr title "packets transmitted, packetBytes"
vector 228 Network.bunkerrouter[0].eth[3].mac txPk:vector(packetBytes) ETV
attr interpolationmode none
attr recordingmode vector(packetBytes)
attr source packetSentToLower
attr title "packets transmitted, packetBytes"
vector 229 Network.bunkerrouter[1].eth[0].mac rxPkOk:vector(packetBytes) ETV
attr interpolationmode none
attr recordingmode vector(packetBytes)
attr source rxPkOk
attr title "packets received OK, packetBytes"
vector 230 Network.bunkerrouter[1].eth[0].mac passedUpPk:vector(packetBytes) ETV
attr interpolationmode none
attr recordingmode vector(packetBytes)
attr source packetSentToUpper
attr title "packets passed to higher layer, packetBytes"
vector 231 Network.bunkerrouter[1].eth[2].queue incomingPacketLengths:vector ETV
attr interpolationmode none
attr recordingmode vector
attr source packetLength(packetPushStarted)
attr title "incoming packet lengths"
attr unit b
vector 232 Network.bunkerrouter[1].eth[2].queue incomingDataRate:vector ETV
attr interpolationmode linear
attr recordingmode vector
attr source throughput(packetPushStarted)
attr title "incoming datarate"
attr unit bps
vector 233 Network.bunkerrouter[1].eth[2].queue queueingTime:vector ETV
attr interpolationmode none
attr recordingmode vector
attr source queueingTime(packetPulled)
attr title "queueing times"
attr unit s
vector 234 Network.bunkerrouter[1].eth[2].queue outgoingPacketLengths:vector ETV
attr interpolationmode none
attr recordingmode vector
attr source packetLength(packetPulled)
attr title "outgoing packet lengths"
attr unit b
vector 235 Network.bunkerrouter[1].eth[2].queue outgoingDataRate:vector ETV
attr interpolationmode linear
attr recordingmode vector
attr source throughput(packetPulled)
attr title "outgoing datarate"
attr unit bps
vector 236 Network.bunkerrouter[1].eth[2].mac packetReceivedFromUpper:vector(packetBytes) ETV
attr interpolationmode none
attr recordingmode vector(packetBytes)
attr source packetReceivedFromUpper
attr title "packet bytes from higher layer, packetBytes"
vector 237 Network.bunkerrouter[1].eth[2].queue queueLength:vector ETV
attr autoWarmupFilter false
attr interpolationmode sample-hold
attr recordingmode vector
attr source "warmup(atomic(constant0(packetPushEnded) + count(packetPushStarted) - count(packetPulled) - count(packetRemoved) - count(packetDropped)))"
attr title "queue length"
attr unit pk
vector 238 Network.bunkerrouter[1].eth[2].queue queueBitLength:vector ETV
attr autoWarmupFilter false
attr interpolationmode sample-hold
attr recordingmode vector
attr source "warmup(atomic(constant0(packetPushEnded) + sum(packetLength(packetPushStarted)) - sum(packetLength(packetPulled)) - sum(packetLength(packetRemoved)) - sum(packetLength(packetDropped))))"
attr title "queue bit length"
attr unit b
vector 239 Network.bunkerrouter[1].eth[2].mac txPk:vector(packetBytes) ETV
attr interpolationmode none
attr recordingmode vector(packetBytes)
attr source packetSentToLower
attr title "packets transmitted, packetBytes"
vector 240 Network.bunkerrouter[2].eth[0].mac rxPkOk:vector(packetBytes) ETV
attr interpolationmode none
attr recordingmode vector(packetBytes)
attr source rxPkOk
attr title "packets received OK, packetBytes"
vector 241 Network.bunkerrouter[2].eth[0].mac passedUpPk:vector(packetBytes) ETV
attr interpolationmode none
attr recordingmode vector(packetBytes)
attr source packetSentToUpper
attr title "packets passed to higher layer, packetBytes"
vector 242 Network.bunkerrouter[2].eth[3].queue incomingPacketLengths:vector ETV
attr interpolationmode none
attr recordingmode vector
attr source packetLength(packetPushStarted)
attr title "incoming packet lengths"
attr unit b
vector 243 Network.bunkerrouter[2].eth[3].queue incomingDataRate:vector ETV
attr interpolationmode linear
attr recordingmode vector
attr source throughput(packetPushStarted)
attr title "incoming datarate"
attr unit bps
vector 244 Network.bunkerrouter[2].eth[3].queue queueingTime:vector ETV
attr interpolationmode none
attr recordingmode vector
attr source queueingTime(packetPulled)
attr title "queueing times"
attr unit s
vector 245 Network.bunkerrouter[2].eth[3].queue outgoingPacketLengths:vector ETV
attr interpolationmode none
attr recordingmode vector
attr source packetLength(packetPulled)
attr title "outgoing packet lengths"
attr unit b
vector 246 Network.bunkerrouter[2].eth[3].queue outgoingDataRate:vector ETV
attr interpolationmode linear
attr recordingmode vector
attr source throughput(packetPulled)
attr title "outgoing datarate"
attr unit bps
vector 247 Network.bunkerrouter[2].eth[3].mac packetReceivedFromUpper:vector(packetBytes) ETV
attr interpolationmode none
attr recordingmode vector(packetBytes)
attr source packetReceivedFromUpper
attr title "packet bytes from higher layer, packetBytes"
vector 248 Network.bunkerrouter[2].eth[3].queue queueLength:vector ETV
attr autoWarmupFilter false
attr interpolationmode sample-hold
attr recordingmode vector
attr source "warmup(atomic(constant0(packetPushEnded) + count(packetPushStarted) - count(packetPulled) - count(packetRemoved) - count(packetDropped)))"
attr title "queue length"
attr unit pk
vector 249 Network.bunkerrouter[2].eth[3].queue queueBitLength:vector ETV
attr autoWarmupFilter false
attr interpolationmode sample-hold
attr recordingmode vector
attr source "warmup(atomic(constant0(packetPushEnded) + sum(packetLength(packetPushStarted)) - sum(packetLength(packetPulled)) - sum(packetLength(packetRemoved)) - sum(packetLength(packetDropped))))"
attr title "queue bit length"
attr unit b
vector 250 Network.bunkerhost[2].eth[0].mac rxPkOk:vector(packetBytes) ETV
attr interpolationmode none
attr recordingmode vector(packetBytes)
attr source rxPkOk
attr title "packets received OK, packetBytes"
vector 251 Network.bunkerhost[2].eth[0].mac passedUpPk:vector(packetBytes) ETV
attr interpolationmode none
attr recordingmode vector(packetBytes)
attr source packetSentToUpper
attr title "packets passed to higher layer, packetBytes"
vector 252 Network.bunkerhost[2].ethernet decapPk:vector(packetBytes) ETV
attr interpolationmode none
attr recordingmode vector(packetBytes)
attr source decapPk
attr title "packets decapsulated, packetBytes"
vector 253 Network.bunkerhost[2].tcp.conn-37 rcvSeq:vector ETV
attr interpolationmode sample-hold
attr recordingmode vector
vector 254 Network.bunkerhost[2].tcp.conn-37 rcvAck:vector ETV
attr interpolationmode sample-hold
attr recordingmode vector
vector 255 Network.bunkerhost[2].tcp.conn-37 tcpRcvPayloadBytes:vector ETV
attr interpolationmode sample-hold
attr recordingmode vector
vector 256 Network.bunkerhost[2].tcp.conn-37 sndWnd:vector ETV
attr interpolationmode sample-hold
attr recordingmode vector
vector 257 Network.bunkerhost[2].tcp.conn-37 unacked:vector ETV
attr interpolationmode sample-hold
attr recordingmode vector
vector 258 Network.bunkerrouter[2].eth[3].mac txPk:vector(packetBytes) ETV
attr interpolationmode none
attr recordingmode vector(packetBytes)
attr source packetSentToLower
attr title "packets transmitted, packetBytes"
vector 259 Network.bunkerrouter[2].eth[4].queue incomingPacketLengths:vector ETV
attr interpolationmode none
attr recordingmode vector
attr source packetLength(packetPushStarted)
attr title "incoming packet lengths"
attr unit b
vector 260 Network.bunkerrouter[2].eth[4].queue incomingDataRate:vector ETV
attr interpolationmode linear
attr recordingmode vector
attr source throughput(packetPushStarted)
attr title "incoming datarate"
attr unit bps
vector 261 Network.bunkerrouter[2].eth[4].queue queueingTime:vector ETV
attr interpolationmode none
attr recordingmode vector
attr source queueingTime(packetPulled)
attr title "queueing times"
attr unit s
vector 262 Network.bunkerrouter[2].eth[4].queue outgoingPacketLengths:vector ETV
attr interpolationmode none
attr recordingmode vector
attr source packetLength(packetPulled)
attr title "outgoing packet lengths"
attr unit b
vector 263 Network.bunkerrouter[2].eth[4].queue outgoingDataRate:vector ETV
attr interpolationmode linear
attr recordingmode vector
attr source throughput(packetPulled)
attr title "outgoing datarate"
attr unit bps
vector 264 Network.bunkerrouter[2].eth[4].mac packetReceivedFromUpper:vector(packetBytes) ETV
attr interpolationmode none
attr recordingmode vector(packetBytes)
attr source packetReceivedFromUpper
attr title "packet bytes from higher layer, packetBytes"
vector 265 Network.bunkerrouter[2].eth[4].queue queueLength:vector ETV
attr autoWarmupFilter false
attr interpolationmode sample-hold
attr recordingmode vector
attr source "warmup(atomic(constant0(packetPushEnded) + count(packetPushStarted) - count(packetPulled) - count(packetRemoved) - count(packetDropped)))"
attr title "queue length"
attr unit pk
vector 266 Network.bunkerrouter[2].eth[4].queue queueBitLength:vector ETV
attr autoWarmupFilter false
attr interpolationmode sample-hold
attr recordingmode vector
attr source "warmup(atomic(constant0(packetPushEnded) + sum(packetLength(packetPushStarted)) - sum(packetLength(packetPulled)) - sum(packetLength(packetRemoved)) - sum(packetLength(packetDropped))))"
attr title "queue bit length"
attr unit b
vector 267 Network.bunkerhost[5].eth[0].mac rxPkOk:vector(packetBytes) ETV
attr interpolationmode none
attr recordingmode vector(packetBytes)
attr source rxPkOk
attr title "packets received OK, packetBytes"
vector 268 Network.bunkerhost[5].eth[0].mac passedUpPk:vector(packetBytes) ETV
attr interpolationmode none
attr recordingmode vector(packetBytes)
attr source packetSentToUpper
attr title "packets passed to higher layer, packetBytes"
vector 269 Network.bunkerhost[5].ethernet decapPk:vector(packetBytes) ETV
attr interpolationmode none
attr recordingmode vector(packetBytes)
attr source decapPk
attr title "packets decapsulated, packetBytes"
vector 270 Network.bunkerhost[5].tcp.conn-38 rcvSeq:vector ETV
attr interpolationmode sample-hold
attr recordingmode vector
vector 271 Network.bunkerhost[5].tcp.conn-38 rcvAck:vector ETV
attr interpolationmode sample-hold
attr recordingmode vector
vector 272 Network.bunkerhost[5].tcp.conn-38 tcpRcvPayloadBytes:vector ETV
attr interpolationmode sample-hold
attr recordingmode vector
vector 273 Network.bunkerhost[5].tcp.conn-38 sndWnd:vector ETV
attr interpolationmode sample-hold
attr recordingmode vector
vector 274 Network.bunkerhost[5].tcp.conn-38 unacked:vector ETV
attr interpolationmode sample-hold
attr recordingmode vector
vector 275 Network.bunkerrouter[2].eth[4].mac txPk:vector(packetBytes) ETV
attr interpolationmode none
attr recordingmode vector(packetBytes)
attr source packetSentToLower
attr title "packets transmitted, packetBytes"
vector 276 Network.bunkerhost[10].eth[0].mac rxPkOk:vector(packetBytes) ETV
attr interpolationmode none
attr recordingmode vector(packetBytes)
attr source rxPkOk
attr title "packets received OK, packetBytes"
vector 277 Network.bunkerhost[10].eth[0].mac passedUpPk:vector(packetBytes) ETV
attr interpolationmode none
attr recordingmode vector(packetBytes)
attr source packetSentToUpper
attr title "packets passed to higher layer, packetBytes"
vector 278 Network.bunkerhost[10].ethernet decapPk:vector(packetBytes) ETV
attr interpolationmode none
attr recordingmode vector(packetBytes)
attr source decapPk
attr title "packets decapsulated, packetBytes"
vector 279 Network.bunkerhost[10].tcp.conn-39 rcvSeq:vector ETV
attr interpolationmode sample-hold
attr recordingmode vector
vector 280 Network.bunkerhost[10].tcp.conn-39 rcvAck:vector ETV
attr interpolationmode sample-hold
attr recordingmode vector
vector 281 Network.bunkerhost[10].tcp.conn-39 tcpRcvPayloadBytes:vector ETV
attr interpolationmode sample-hold
attr recordingmode vector
vector 282 Network.bunkerhost[10].tcp.conn-39 sndWnd:vector ETV
attr interpolationmode sample-hold
attr recordingmode vector
vector 283 Network.bunkerhost[10].tcp.conn-39 unacked:vector ETV
attr interpolationmode sample-hold
attr recordingmode vector
vector 284 Network.bunkerhost[11].eth[0].mac rxPkOk:vector(packetBytes) ETV
attr interpolationmode none
attr recordingmode vector(packetBytes)
attr source rxPkOk
attr title "packets received OK, packetBytes"
vector 285 Network.bunkerhost[11].eth[0].mac passedUpPk:vector(packetBytes) ETV
attr interpolationmode none
attr recordingmode vector(packetBytes)
attr source packetSentToUpper
attr title "packets passed to higher layer, packetBytes"
vector 286 Network.bunkerhost[11].ethernet decapPk:vector(packetBytes) ETV
attr interpolationmode none
attr recordingmode vector(packetBytes)
attr source decapPk
attr title "packets decapsulated, packetBytes"
vector 287 Network.bunkerhost[11].tcp.conn-40 rcvSeq:vector ETV
attr interpolationmode sample-hold
attr recordingmode vector
vector 288 Network.bunkerhost[11].tcp.conn-40 rcvAck:vector ETV
attr interpolationmode sample-hold
attr recordingmode vector
vector 289 Network.bunkerhost[11].tcp.conn-40 tcpRcvPayloadBytes:vector ETV
attr interpolationmode sample-hold
attr recordingmode vector
vector 290 Network.bunkerhost[11].tcp.conn-40 sndWnd:vector ETV
attr interpolationmode sample-hold
attr recordingmode vector
vector 291 Network.bunkerhost[11].tcp.conn-40 unacked:vector ETV
attr interpolationmode sample-hold
attr recordingmode vector
vector 292 Network.server.tcp.conn-41 rcvSeq:vector ETV
attr interpolationmode sample-hold
attr recordingmode vector
vector 293 Network.server.tcp.conn-41 rcvAck:vector ETV
attr interpolationmode sample-hold
attr recordingmode vector
vector 294 Network.server.tcp.conn-41 tcpRcvPayloadBytes:vector ETV
attr interpolationmode sample-hold
attr recordingmode vector
vector 295 Network.server.tcp.conn-41 unacked:vector ETV
attr interpolationmode sample-hold
attr recordingmode vector
vector 296 Network.server.tcp.conn-42 rcvSeq:vector ETV
attr interpolationmode sample-hold
attr recordingmode vector
vector 297 Network.server.tcp.conn-42 rcvAck:vector ETV
attr interpolationmode sample-hold
attr recordingmode vector
vector 298 Network.server.tcp.conn-42 tcpRcvPayloadBytes:vector ETV
attr interpolationmode sample-hold
attr recordingmode vector
vector 299 Network.server.tcp.conn-42 unacked:vector ETV
attr interpolationmode sample-hold
attr recordingmode vector
vector 300 Network.server.tcp.conn-41 dupAcks:vector ETV
attr interpolationmode sample-hold
attr recordingmode vector
vector 301 Network.server.tcp.conn-43 rcvSeq:vector ETV
attr interpolationmode sample-hold
attr recordingmode vector
vector 302 Network.server.tcp.conn-43 rcvAck:vector ETV
attr interpolationmode sample-hold
attr recordingmode vector
vector 303 Network.server.tcp.conn-43 tcpRcvPayloadBytes:vector ETV
attr interpolationmode sample-hold
attr recordingmode vector
vector 304 Network.server.tcp.conn-43 unacked:vector ETV
attr interpolationmode sample-hold
attr recordingmode vector
vector 305 Network.server.tcp.conn-42 dupAcks:vector ETV
attr interpolationmode sample-hold
attr recordingmode vector
vector 306 Network.server.tcp.conn-44 rcvSeq:vector ETV
attr interpolationmode sample-hold
attr recordingmode vector
vector 307 Network.server.tcp.conn-44 rcvAck:vector ETV
attr interpolationmode sample-hold
attr recordingmode vector
vector 308 Network.server.tcp.conn-44 tcpRcvPayloadBytes:vector ETV
attr interpolationmode sample-hold
attr recordingmode vector
vector 309 Network.server.tcp.conn-44 unacked:vector ETV
attr interpolationmode sample-hold
attr recordingmode vector
vector 310 Network.server.tcp.conn-43 dupAcks:vector ETV
attr interpolationmode sample-hold
attr recordingmode vector
vector 311 Network.server.tcp.conn-44 dupAcks:vector ETV
attr interpolationmode sample-hold
attr recordingmode vector
vector 312 Network.bunkerhost[2].tcp.conn-37 rtt:vector ETV
attr interpolationmode sample-hold
attr recordingmode vector
vector 313 Network.bunkerhost[2].tcp.conn-37 srtt:vector ETV
attr interpolationmode sample-hold
attr recordingmode vector
vector 314 Network.bunkerhost[2].tcp.conn-37 rttvar:vector ETV
attr interpolationmode sample-hold
attr recordingmode vector
vector 315 Network.bunkerhost[2].tcp.conn-37 rto:vector ETV
attr interpolationmode sample-hold
attr recordingmode vector
vector 316 Network.bunkerhost[2].tcp.conn-37 cwnd:vector ETV
attr interpolationmode sample-hold
attr recordingmode vector
vector 317 Network.bunkerhost[2].tcp.conn-37 ssthresh:vector ETV
attr interpolationmode sample-hold
attr recordingmode vector
vector 318 Network.bunkerhost[2].tcp.conn-37 dupAcks:vector ETV
attr interpolationmode sample-hold
attr recordingmode vector
vector 319 Network.bunkerhost[5].tcp.conn-38 rtt:vector ETV
attr interpolationmode sample-hold
attr recordingmode vector
vector 320 Network.bunkerhost[5].tcp.conn-38 srtt:vector ETV
attr interpolationmode sample-hold
attr recordingmode vector
vector 321 Network.bunkerhost[5].tcp.conn-38 rttvar:vector ETV
attr interpolationmode sample-hold
attr recordingmode vector
vector 322 Network.bunkerhost[5].tcp.conn-38 rto:vector ETV
attr interpolationmode sample-hold
attr recordingmode vector
vector 323 Network.bunkerhost[5].tcp.conn-38 cwnd:vector ETV
attr interpolationmode sample-hold
attr recordingmode vector
vector 324 Network.bunkerhost[5].tcp.conn-38 ssthresh:vector ETV
attr interpolationmode sample-hold
attr recordingmode vector
vector 325 Network.bunkerhost[5].tcp.conn-38 dupAcks:vector ETV
attr interpolationmode sample-hold
attr recordingmode vector
vector 326 Network.bunkerhost[10].tcp.conn-39 rtt:vector ETV
attr interpolationmode sample-hold
attr recordingmode vector
vector 327 Network.bunkerhost[10].tcp.conn-39 srtt:vector ETV
attr interpolationmode sample-hold
attr recordingmode vector
vector 328 Network.bunkerhost[10].tcp.conn-39 rttvar:vector ETV
attr interpolationmode sample-hold
attr recordingmode vector
vector 329 Network.bunkerhost[10].tcp.conn-39 rto:vector ETV
attr interpolationmode sample-hold
attr recordingmode vector
vector 330 Network.bunkerhost[10].tcp.conn-39 cwnd:vector ETV
attr interpolationmode sample-hold
attr recordingmode vector
vector 331 Network.bunkerhost[10].tcp.conn-39 ssthresh:vector ETV
attr interpolationmode sample-hold
attr recordingmode vector
vector 332 Network.bunkerhost[10].tcp.conn-39 dupAcks:vector ETV
attr interpolationmode sample-hold
attr recordingmode vector
vector 333 Network.bunkerhost[11].tcp.conn-40 rtt:vector ETV
attr interpolationmode sample-hold
attr recordingmode vector
vector 334 Network.bunkerhost[11].tcp.conn-40 srtt:vector ETV
attr interpolationmode sample-hold
attr recordingmode vector
vector 335 Network.bunkerhost[11].tcp.conn-40 rttvar:vector ETV
attr interpolationmode sample-hold
attr recordingmode vector
vector 336 Network.bunkerhost[11].tcp.conn-40 rto:vector ETV
attr interpolationmode sample-hold
attr recordingmode vector
vector 337 Network.bunkerhost[11].tcp.conn-40 cwnd:vector ETV
attr interpolationmode sample-hold
attr recordingmode vector
vector 338 Network.bunkerhost[11].tcp.conn-40 ssthresh:vector ETV
attr interpolationmode sample-hold
attr recordingmode vector
vector 339 Network.bunkerhost[11].tcp.conn-40 dupAcks:vector ETV
attr interpolationmode sample-hold
attr recordingmode vector
vector 340 Network.server.tcp.conn-41 cwnd:vector ETV
attr interpolationmode sample-hold
attr recordingmode vector
vector 341 Network.server.tcp.conn-41 ssthresh:vector ETV
attr interpolationmode sample-hold
attr recordingmode vector
vector 342 Network.server.tcp.conn-42 cwnd:vector ETV
attr interpolationmode sample-hold
attr recordingmode vector
vector 343 Network.server.tcp.conn-42 ssthresh:vector ETV
attr interpolationmode sample-hold
attr recordingmode vector
vector 344 Network.server.tcp.conn-43 cwnd:vector ETV
attr interpolationmode sample-hold
attr recordingmode vector
vector 345 Network.server.tcp.conn-43 ssthresh:vector ETV
attr interpolationmode sample-hold
attr recordingmode vector
vector 346 Network.server.tcp.conn-44 cwnd:vector ETV
attr interpolationmode sample-hold
attr recordingmode vector
vector 347 Network.server.tcp.conn-44 ssthresh:vector ETV
attr interpolationmode sample-hold
attr recordingmode vector
315	73200 27 509 509 2.0020368 2.0020368 1 2.625682 2.625682 2.625682 6.894205965124
314	73227 28 509 509 2.0020368 2.0020368 1 0.6563864 0.6563864 0.6563864 0.43084310610496
313	73255 28 509 509 2.0020368 2.0020368 1 0.0001364 0.0001364 0.0001364 1.860496e-08
317	73283 58 509 850 2.0020368 2.0031168 2 4294967295 4294967295 8589934590 3.6893488130239e+19
316	73341 46 509 850 2.0020368 2.0031168 2 1072 1608 2680 3734848
255	73387 79 184 850 2.0009456 2.0031168 4 0 0 0 0
39	73466 84 18 533 2 2.002104 5 0 0 0 0
318	73550 59 509 850 2.0020368 2.0031168 3 0 0 0 0
257	73609 80 188 850 2.0009456 2.0031168 4 0 20 21 401
254	73689 99 184 850 2.0009456 2.0031168 4 500001 500022 2000065 1000065001367
253	73788 99 184 850 2.0009456 2.0031168 4 500118 500120 2000476 1000476056646
42	73887 104 18 533 2 2.002104 5 0 500120 2000478 1000478057122
40	73991 131 18 533 2 2.002104 6 7504 507624 2545621 1288463891155
41	74122 99 18 533 2 2.002104 5 7504 7504 37520 281550080
256	74221 69 184 850 2.0009456 2.0031168 3 7504 7504 22512 168930048
312	74290 28 509 509 2.0020368 2.0020368 1 0.0010912 0.0010912 0.0010912 1.19071744e-06
322	74318 27 559 559 2.0021824 2.0021824 1 2.625731 2.625731 2.625731 6.894463284361
321	74345 28 559 559 2.0021824 2.0021824 1 0.6563962 0.6563962 0.6563962 0.43085597137444
320	74373 28 559 559 2.0021824 2.0021824 1 0.0001462 0.0001462 0.0001462 2.137444e-08
324	74401 58 559 871 2.0021824 2.0032624 2 4294967295 4294967295 8589934590 3.6893488130239e+19
323	74459 46 559 871 2.0021824 2.0032624 2 1072 1608 2680 3734848
272	74505 80 205 871 2.0010128 2.0032624 4 0 0 0 0
43	74585 86 19 583 2 2.0022496 5 0 0 0 0
325	74671 60 559 871 2.0021824 2.0032624 3 0 0 0 0
274	74731 81 209 871 2.0010128 2.0032624 4 0 20 21 401
271	74812 100 205 871 2.0010128 2.0032624 4 500001 500022 2000065 1000065001367
270	74912 100 205 871 2.0010128 2.0032624 4 500135 500137 2000544 1000544073986
46	75012 106 19 583 2 2.0022496 5 0 500137 2000546 1000546074530
44	75118 133 19 583 2 2.0022496 6 7504 507641 2545706 1288550188578
45	75251 101 19 583 2 2.0022496 5 7504 7504 37520 281550080
273	75352 69 205 871 2.0010128 2.0032624 3 7504 7504 22512 168930048
319	75421 28 559 559 2.0021824 2.0021824 1 0.0011696 0.0011696 0.0011696 1.36796416e-06
329	75449 25 608 608 2.002328 2.002328 1 2.62578 2.62578 2.62578 6.8947206084
328	75474 26 608 608 2.002328 2.002328 1 0.656406 0.656406 0.656406 0.430868836836
327	75500 26 608 608 2.002328 2.002328 1 0.000156 0.000156 0.000156 2.4336e-08
331	75526 56 608 885 2.002328 2.003408 2 4294967295 4294967295 8589934590 3.6893488130239e+19
330	75582 44 608 885 2.002328 2.003408 2 1072 1608 2680 3734848
281	75626 76 221 885 2.00108 2.003408 4 0 0 0 0
47	75702 82 20 632 2 2.0023952 5 0 0 0 0
332	75784 58 608 885 2.002328 2.003408 3 0 0 0 0
283	75842 77 225 885 2.00108 2.003408 4 0 20 21 401
280	75919 96 221 885 2.00108 2.003408 4 500001 500022 2000065 1000065001367
279	76015 96 221 885 2.00108 2.003408 4 500151 500153 2000608 1000608092418
50	76111 102 20 632 2 2.0023952 5 0 500153 2000610 1000610093026
48	76213 127 20 632 2 2.0023952 6 7504 507657 2545786 1288631412322
49	76340 97 20 632 2 2.0023952 5 7504 7504 37520 281550080
282	76437 65 221 885 2.00108 2.003408 3 7504 7504 22512 168930048
326	76502 26 608 608 2.002328 2.002328 1 0.001248 0.001248 0.001248 1.557504e-06
336	76528 27 655 655 2.0024624 2.0024624 1 2.625822 2.625822 2.625822 6.894941175684
335	76555 28 655 655 2.0024624 2.0024624 1 0.6564144 0.6564144 0.6564144 0.43087986452736
334	76583 28 655 655 2.0024624 2.0024624 1 0.0001644 0.0001644 0.0001644 2.702736e-08
338	76611 58 655 892 2.0024624 2.0035424 2 4294967295 4294967295 8589934590 3.6893488130239e+19
337	76669 46 655 892 2.0024624 2.0035424 2 1072 1608 2680 3734848
289	76715 80 242 892 2.0011472 2.0035424 4 0 0 0 0
51	76795 86 21 679 2 2.0025296 5 0 0 0 0
339	76881 60 655 892 2.0024624 2.0035424 3 0 0 0 0
291	76941 81 246 892 2.0011472 2.0035424 4 0 20 21 401
288	77022 100 242 892 2.0011472 2.0035424 4 500001 500022 2000065 1000065001367
287	77122 100 242 892 2.0011472 2.0035424 4 500168 500170 2000676 1000676114246
54	77222 106 21 679 2 2.0025296 5 0 500170 2000678 1000678114922
52	77328 133 21 679 2 2.0025296 6 7504 507674 2545871 1288717715355
53	77461 101 21 679 2 2.0025296 5 7504 7504 37520 281550080
290	77562 69 242 892 2.0011472 2.0035424 3 7504 7504 22512 168930048
333	77631 28 655 655 2.0024624 2.0024624 1 0.0013152 0.0013152 0.0013152 1.72975104e-06
vector 348 Network.bunkerhost[0].tcp.conn-45 tcpRcvQueueBytes:vector ETV
attr interpolationmode sample-hold
attr recordingmode vector
vector 349 Network.bunkerhost[0].tcp.conn-45 rcvAdv:vector ETV
attr interpolationmode sample-hold
attr recordingmode vector
vector 350 Network.bunkerhost[0].tcp.conn-45 rcvWnd:vector ETV
attr interpolationmode sample-hold
attr recordingmode vector
vector 351 Network.bunkerhost[0].tcp.conn-45 sndAck:vector ETV
attr interpolationmode sample-hold
attr recordingmode vector
vector 352 Network.bunkerhost[3].tcp.conn-46 tcpRcvQueueBytes:vector ETV
attr interpolationmode sample-hold
attr recordingmode vector
vector 353 Network.bunkerhost[3].tcp.conn-46 rcvAdv:vector ETV
attr interpolationmode sample-hold
attr recordingmode vector
vector 354 Network.bunkerhost[3].tcp.conn-46 rcvWnd:vector ETV
attr interpolationmode sample-hold
attr recordingmode vector
vector 355 Network.bunkerhost[3].tcp.conn-46 sndAck:vector ETV
attr interpolationmode sample-hold
attr recordingmode vector
vector 356 Network.bunkerhost[6].tcp.conn-47 tcpRcvQueueBytes:vector ETV
attr interpolationmode sample-hold
attr recordingmode vector
vector 357 Network.bunkerhost[6].tcp.conn-47 rcvAdv:vector ETV
attr interpolationmode sample-hold
attr recordingmode vector
vector 358 Network.bunkerhost[6].tcp.conn-47 rcvWnd:vector ETV
attr interpolationmode sample-hold
attr recordingmode vector
vector 359 Network.bunkerhost[6].tcp.conn-47 sndAck:vector ETV
attr interpolationmode sample-hold
attr recordingmode vector
vector 360 Network.bunkerhost[6].tcp.conn-48 tcpRcvQueueBytes:vector ETV
attr interpolationmode sample-hold
attr recordingmode vector
vector 361 Network.bunkerhost[6].tcp.conn-48 rcvAdv:vector ETV
attr interpolationmode sample-hold
attr recordingmode vector
vector 362 Network.bunkerhost[6].tcp.conn-48 rcvWnd:vector ETV
attr interpolationmode sample-hold
attr recordingmode vector
vector 363 Network.bunkerhost[6].tcp.conn-48 sndAck:vector ETV
attr interpolationmode sample-hold
attr recordingmode vector
vector 364 Network.bunkerhost[9].tcp.conn-49 tcpRcvQueueBytes:vector ETV
attr interpolationmode sample-hold
attr recordingmode vector
vector 365 Network.bunkerhost[9].tcp.conn-49 rcvAdv:vector ETV
attr interpolationmode sample-hold
[...]
1555	937440 112 8421 8730 6.0050152 6.0062408 4 1500876 1500877 6003506 9010521073010
1556	937552 89 8421 8730 6.0050152 6.0062408 4 0 20 20 400
1557	937641 66 8421 8726 6.0050152 6.0061736 3 0 1 1 1
1558	937707 66 8475 8730 6.0051608 6.0062408 3 0 0 0 0
1559	937773 24 8498 8498 6.005228 6.005228 1 1072 1072 1072 1149184
1560	937797 30 8498 8498 6.005228 6.005228 1 4294967295 4294967295 4294967295 1.844674406512e+19
1561	937827 25 8549 8549 6.0053624 6.0053624 1 1072 1072 1072 1149184
1562	937852 31 8549 8549 6.0053624 6.0053624 1 4294967295 4294967295 4294967295 1.844674406512e+19
1563	937883 25 8598 8598 6.0054968 6.0054968 1 1072 1072 1072 1149184
1564	937908 31 8598 8598 6.0054968 6.0054968 1 4294967295 4294967295 4294967295 1.844674406512e+19
1572	937939 25 8726 8726 6.0061736 6.0061736 1 1072 1072 1072 1149184
1573	937964 31 8726 8726 6.0061736 6.0061736 1 4294967295 4294967295 4294967295 1.844674406512e+19
1602	937995 141 8859 10111 8.0014184 8.0037624 5 2007741 2007762 10038766 20155364561048
1603	938136 75 8859 10069 8.0014184 8.0036952 3 7504 7504 22512 168930048
1604	938211 111 8859 10111 8.0014184 8.0037624 5 0 0 0 0
1605	938322 101 8859 10111 8.0014184 8.0037624 4 7504 7504 30016 225240064
1606	938423 113 8859 10111 8.0014184 8.0037624 4 2000237 2000258 8001009 16004036254831
1611	938536 141 8884 10196 8.0014856 8.0038968 5 2007758 2007779 10038851 20155705880537
1612	938677 76 8884 10149 8.0014856 8.0038296 3 7504 7504 22512 168930048
1613	938753 111 8884 10196 8.0014856 8.0038968 5 0 0 0 0
1614	938864 101 8884 10196 8.0014856 8.0038968 4 7504 7504 30016 225240064
1615	938965 113 8884 10196 8.0014856 8.0038968 4 2000254 2000275 8001077 16004308290293
1616	939078 141 8907 10288 8.0015528 8.0040312 5 2007775 2007796 10038936 20156047202916
1617	939219 75 8907 10245 8.0015528 8.003964 3 7504 7504 22512 168930048
1618	939294 111 8907 10288 8.0015528 8.0040312 5 0 0 0 0
1619	939405 101 8907 10288 8.0015528 8.0040312 4 7504 7504 30016 225240064
1620	939506 113 8907 10288 8.0015528 8.0040312 4 2000271 2000292 8001145 16004580328067
1621	939619 137 8930 10369 8.00162 8.0041656 5 2007791 2007812 10039016 20156368450148
1622	939756 74 8930 10334 8.00162 8.0040984 3 7504 7504 22512 168930048
1623	939830 109 8930 10369 8.00162 8.0041656 5 0 0 0 0
1624	939939 99 8930 10369 8.00162 8.0041656 4 7504 7504 30016 225240064
1625	940038 111 8930 10369 8.00162 8.0041656 4 2000287 2000308 8001209 16004836365731
1626	940149 138 8958 10464 8.0016872 8.0043 5 2007808 2007829 10039101 20156709778137
1627	940287 75 8958 10418 8.0016872 8.0042328 3 7504 7504 22512 168930048
1628	940362 108 8958 10464 8.0016872 8.0043 5 0 0 0 0
1629	940470 98 8958 10464 8.0016872 8.0043 4 7504 7504 30016 225240064
1630	940568 110 8958 10464 8.0016872 8.0043 4 2000304 2000325 8001277 16005108407993
1631	940678 169 9009 10654 8.0018216 8.0045688 6 2007842 2007883 12047213 24189223513389
1632	940847 101 9009 10615 8.0018216 8.0045016 4 7504 7504 30016 225240064
1633	940948 133 9009 10654 8.0018216 8.0045688 6 0 0 0 0
1634	941081 126 9009 10654 8.0018216 8.0045688 5 7504 7504 37520 281550080
1635	941207 141 9009 10654 8.0018216 8.0045688 5 2000338 2000379 10001851 20007404686537
1636	941348 141 9034 10730 8.0018888 8.0047032 5 2007858 2007879 10039351 20157713700737
1637	941489 75 9034 10698 8.0018888 8.004636 3 7504 7504 22512 168930048
1638	941564 111 9034 10730 8.0018888 8.0047032 5 0 0 0 0
1639	941675 101 9034 10730 8.0018888 8.0047032 4 7504 7504 30016 225240064
1640	941776 113 9034 10730 8.0018888 8.0047032 4 2000354 2000375 8001477 16005908545693
1646	941889 167 9065 10847 8.001956 8.0050392 6 2007875 2007916 12047411 24190018635981
1647	942056 101 9065 10783 8.001956 8.0048376 4 7504 7504 30016 225240064
1648	942157 132 9065 10847 8.001956 8.0050392 6 0 0 0 0
1649	942289 125 9065 10847 8.001956 8.0050392 5 7504 7504 37520 281550080
1650	942414 140 9065 10847 8.001956 8.0050392 5 2000371 2000412 10002016 20008064814148
1682	942554 113 9306 10111 8.002364 8.0037624 4 2000237 2000257 8000988 16003952244436
1683	942667 113 9306 10111 8.002364 8.0037624 4 2000355 2000356 8001422 16005688505522
1684	942780 90 9306 10111 8.002364 8.0037624 4 0 20 20 400
1685	942870 66 9306 10069 8.002364 8.0036952 3 0 1 1 1
1692	942936 114 9348 10196 8.0024312 8.0038968 4 2000254 2000274 8001056 16004224279184
1693	943050 114 9348 10196 8.0024312 8.0038968 4 2000372 2000373 8001490 16005960555026
1694	943164 91 9348 10196 8.0024312 8.0038968 4 0 20 20 400
1695	943255 67 9348 10149 8.0024312 8.0038296 3 0 1 1 1
1696	943322 68 9381 10111 8.0025096 8.0037624 3 0 0 0 0
1697	943390 113 9414 10288 8.0025768 8.0040312 4 2000271 2000291 8001124 16004496316244
1698	943503 113 9414 10288 8.0025768 8.0040312 4 2000389 2000390 8001558 16006232606842
1699	943616 90 9414 10288 8.0025768 8.0040312 4 0 20 20 400
1700	943706 66 9414 10245 8.0025768 8.003964 3 0 1 1 1
1701	943772 68 9443 10196 8.0026552 8.0038968 3 0 0 0 0
1702	943840 114 9476 10369 8.0027224 8.0041656 4 2000287 2000307 8001188 16004752353236
1703	943954 114 9476 10369 8.0027224 8.0041656 4 2000405 2000406 8001622 16006488657722
1704	944068 91 9476 10369 8.0027224 8.0041656 4 0 20 20 400
1705	944159 67 9476 10334 8.0027224 8.0040984 3 0 1 1 1
1706	944226 67 9502 10288 8.0028008 8.0040312 3 0 0 0 0
1711	944293 110 9541 10464 8.002868 8.0043 4 2000304 2000324 8001256 16005024394784
1712	944403 110 9541 10464 8.002868 8.0043 4 2000422 2000423 8001690 16006760714026
1713	944513 87 9541 10464 8.002868 8.0043 4 0 20 20 400
1714	944600 66 9541 10418 8.002868 8.0042328 3 0 1 1 1
1715	944666 68 9576 10369 8.0029464 8.0041656 3 0 0 0 0
1723	944734 65 9620 10464 8.0030248 8.0043 3 0 0 0 0
1728	944799 142 9669 10654 8.003092 8.0045688 5 2000338 2000378 10001810 20007240657140
1729	944941 142 9669 10654 8.003092 8.0045688 5 2000456 2000487 10002372 20009489126406
1730	945083 113 9669 10654 8.003092 8.0045688 5 0 40 40 1600
1731	945196 113 9669 10615 8.003092 8.0045016 5 0 31 62 1862
1739	945309 113 9705 10730 8.0031592 8.0047032 4 2000354 2000374 8001456 16005824530384
1740	945422 113 9705 10730 8.0031592 8.0047032 4 2000473 2000474 8001894 16007576896810
1741	945535 90 9705 10730 8.0031592 8.0047032 4 0 20 20 400
1742	945625 66 9705 10698 8.0031592 8.004636 3 0 1 1 1
1743	945691 91 9766 10654 8.0032536 8.0045688 4 0 0 0 0
1744	945782 28 9769 9769 8.0032536 8.0032536 1 2000456 2000456 2000456 4001824207936
1752	945810 143 9813 10847 8.0033208 8.0050392 5 2000371 2000411 10001975 20007900782045
1753	945953 143 9813 10847 8.0033208 8.0050392 5 2000490 2000521 10002542 20010169293482
1754	946096 114 9813 10847 8.0033208 8.0050392 5 0 40 40 1600
1755	946210 114 9813 10783 8.0033208 8.0048376 5 0 31 62 1862
1756	946324 67 9868 10730 8.0033992 8.0047032 3 0 0 0 0
1764	946391 91 9933 10847 8.0034936 8.0050392 4 0 0 0 0
1765	946482 28 9936 9936 8.0034936 8.0034936 1 2000490 2000490 2000490 4001960240100
1773	946510 143 9977 11316 8.0035608 8.0064216 5 2008214 2008235 10041131 20164862352329
1774	946653 77 9977 11298 8.0035608 8.0063544 3 7504 7504 22512 168930048
1775	946730 114 9977 11316 8.0035608 8.0064216 5 0 0 0 0
1776	946844 103 9977 11316 8.0035608 8.0064216 4 7504 7504 30016 225240064
1777	946947 115 9977 11316 8.0035608 8.0064216 4 2000710 2000731 8002901 16011606104261
1778	947062 143 10027 11276 8.003628 8.0062872 5 2008264 2008285 10041381 20165866477929
1779	947205 74 10027 11261 8.003628 8.00622 3 7504 7504 22512 168930048
1780	947279 114 10027 11276 8.003628 8.0062872 5 0 0 0 0
1781	947393 103 10027 11276 8.003628 8.0062872 4 7504 7504 30016 225240064
1782	947496 115 10027 11276 8.003628 8.0062872 4 2000760 2000781 8003101 16012406404361
1787	947611 26 10069 10069 8.0036952 8.0036952 1 1072 1072 1072 1149184
1788	947637 32 10069 10069 8.0036952 8.0036952 1 4294967295 4294967295 4294967295 1.844674406512e+19
1796	947669 26 10149 10149 8.0038296 8.0038296 1 1072 1072 1072 1149184
1797	947695 32 10149 10149 8.0038296 8.0038296 1 4294967295 4294967295 4294967295 1.844674406512e+19
1798	947727 25 10245 10245 8.003964 8.003964 1 1072 1072 1072 1149184
1799	947752 31 10245 10245 8.003964 8.003964 1 4294967295 4294967295 4294967295 1.844674406512e+19
1807	947783 26 10334 10334 8.0040984 8.0040984 1 1072 1072 1072 1149184
1808	947809 32 10334 10334 8.0040984 8.0040984 1 4294967295 4294967295 4294967295 1.844674406512e+19
1816	947841 26 10418 10418 8.0042328 8.0042328 1 1072 1072 1072 1149184
1817	947867 32 10418 10418 8.0042328 8.0042328 1 4294967295 4294967295 4294967295 1.844674406512e+19
1823	947899 144 10516 11353 8.0043672 8.006556 5 2008427 2008448 10042196 20169140100980
1824	948043 78 10516 11340 8.0043672 8.0064888 3 7504 7504 22512 168930048
1825	948121 114 10516 11353 8.0043672 8.006556 5 0 0 0 0
1826	948235 103 10516 11353 8.0043672 8.006556 4 7504 7504 30016 225240064
1827	948338 115 10516 11353 8.0043672 8.006556 4 2000923 2000944 8003753 16015015521563
1837	948453 31 10570 10570 8.0044344 8.0044344 1 0.0011808 0.0011808 0.0011808 1.39428864e-06
1838	948484 31 10570 10570 8.0044344 8.0044344 1 0.0001476 0.0001476 0.0001476 2.178576e-08
1839	948515 31 10570 10570 8.0044344 8.0044344 1 0.6563976 0.6563976 0.6563976 0.43085780928576
1840	948546 30 10570 10570 8.0044344 8.0044344 1 2.625738 2.625738 2.625738 6.894500044644
1841	948576 52 10570 10615 8.0044344 8.0045016 2 1072 1608 2680 3734848
1842	948628 64 10570 10615 8.0044344 8.0045016 2 4294967295 4294967295 8589934590 3.6893488130239e+19
1843	948692 25 10698 10698 8.004636 8.004636 1 1072 1072 1072 1149184
1844	948717 31 10698 10698 8.004636 8.004636 1 4294967295 4294967295 4294967295 1.844674406512e+19
1845	948748 31 10760 10760 8.0047704 8.0047704 1 0.0012768 0.0012768 0.0012768 1.63021824e-06
1846	948779 31 10760 10760 8.0047704 8.0047704 1 0.0001596 0.0001596 0.0001596 2.547216e-08
1847	948810 31 10760 10760 8.0047704 8.0047704 1 0.6564096 0.6564096 0.6564096 0.43087356297216
1848	948841 30 10760 10760 8.0047704 8.0047704 1 2.625798 2.625798 2.625798 6.894815136804
1849	948871 52 10760 10783 8.0047704 8.0048376 2 1072 1608 2680 3734848
1850	948923 64 10760 10783 8.0047704 8.0048376 2 4294967295 4294967295 8589934590 3.6893488130239e+19
1856	948987 116 10812 11316 8.0049048 8.0064216 4 2000710 2000730 8002880 16011522074000
1857	949103 116 10812 11316 8.0049048 8.0064216 4 2000891 2000892 8003566 16014267179090
1858	949219 93 10812 11316 8.0049048 8.0064216 4 0 20 20 400
1859	949312 69 10812 11298 8.0049048 8.0063544 3 0 1 1 1
1860	949381 113 10826 11276 8.004972 8.0062872 4 2000760 2000780 8003080 16012322372000
1861	949494 113 10826 11276 8.004972 8.0062872 4 2000907 2000908 8003630 16014523294226
1862	949607 90 10826 11276 8.004972 8.0062872 4 0 20 20 400
1863	949697 66 10826 11261 8.004972 8.00622 3 0 1 1 1
1864	949763 145 10873 11467 8.0051064 8.0072328 5 2008609 2008630 10043106 20172795625944
1865	949908 77 10873 11463 8.0051064 8.0071656 3 7504 7504 22512 168930048
1866	949985 115 10873 11467 8.0051064 8.0072328 5 0 0 0 0
1867	950100 104 10873 11467 8.0051064 8.0072328 4 7504 7504 30016 225240064
1868	950204 116 10873 11467 8.0051064 8.0072328 4 2001105 2001126 8004481 16017929020151
1869	950320 67 10896 11276 8.0051848 8.0062872 3 0 0 0 0
1870	950387 69 10923 11316 8.0052632 8.0064216 3 0 0 0 0
1871	950456 115 10946 11353 8.0053304 8.006556 4 2000923 2000943 8003732 16014931482356
1872	950571 115 10946 11353 8.0053304 8.006556 4 2001092 2001093 8004370 16017484774226
1873	950686 92 10946 11353 8.0053304 8.006556 4 0 20 20 400
1874	950778 69 10946 11340 8.0053304 8.0064888 3 0 1 1 1
1875	950847 68 10974 11353 8.0054136 8.006556 3 0 0 0 0
1902	950915 115 11200 11467 8.006052 8.0072328 4 2001105 2001125 8004460 16017844973300
1903	951030 115 11200 11467 8.006052 8.0072328 4 2001277 2001278 8005110 16020446528026
1904	951145 92 11200 11467 8.006052 8.0072328 4 0 20 20 400
1905	951237 68 11200 11463 8.006052 8.0071656 3 0 1 1 1
1906	951305 69 11233 11467 8.0061528 8.0072328 3 0 0 0 0
1907	951374 24 11261 11261 8.00622 8.00622 1 1072 1072 1072 1149184
1908	951398 30 11261 11261 8.00622 8.00622 1 4294967295 4294967295 4294967295 1.844674406512e+19
1909	951428 26 11298 11298 8.0063544 8.0063544 1 1072 1072 1072 1149184
1910	951454 32 11298 11298 8.0063544 8.0063544 1 4294967295 4294967295 4294967295 1.844674406512e+19
1911	951486 26 11340 11340 8.0064888 8.0064888 1 1072 1072 1072 1149184
1912	951512 32 11340 11340 8.0064888 8.0064888 1 4294967295 4294967295 4294967295 1.844674406512e+19
1920	951544 26 11463 11463 8.0071656 8.0071656 1 1072 1072 1072 1149184
1921	951570 32 11463 11463 8.0071656 8.0071656 1 4294967295 4294967295 4294967295 1.844674406512e+19
1946	951602 171 11590 12566 9.002364 9.004676 6 2257977 2258018 13548023 30591487870249
1947	951773 103 11590 12521 9.002364 9.0046088 4 7504 7504 30016 225240064
1948	951876 136 11590 12566 9.002364 9.004676 6 0 0 0 0
1949	952012 128 11590 12566 9.002364 9.004676 5 7504 7504 37520 281550080
1950	952140 143 11590 12566 9.002364 9.004676 5 2250473 2250514 11252526 25323868277432
1951	952283 145 11613 12638 9.0024312 9.0048104 5 2257994 2258015 11290031 25492959996689
1952	952428 78 11613 12604 9.0024312 9.0047432 3 7504 7504 22512 168930048
1953	952506 115 11613 12638 9.0024312 9.0048104 5 0 0 0 0
1954	952621 104 11613 12638 9.0024312 9.0048104 4 7504 7504 30016 225240064
1955	952725 116 11613 12638 9.0024312 9.0048104 4 2250490 2250511 9002021 20259095521421
1956	952841 145 11631 12719 9.0024984 9.0049448 5 2258011 2258032 11290116 25493343859188
1957	952986 78 11631 12690 9.0024984 9.0048776 3 7504 7504 22512 168930048
1958	953064 115 11631 12719 9.0024984 9.0049448 5 0 0 0 0
1959	953179 104 11631 12719 9.0024984 9.0049448 4 7504 7504 30016 225240064
1960	953283 116 11631 12719 9.0024984 9.0049448 4 2250507 2250528 9002089 20259401591291
1961	953399 171 11652 12837 9.0025656 9.0051656 6 2258028 2258069 13548329 30592869784201
1962	953570 103 11652 12801 9.0025656 9.0050984 4 7504 7504 30016 225240064
1963	953673 134 11652 12837 9.0025656 9.0051656 6 0 0 0 0
1964	953807 127 11652 12837 9.0025656 9.0051656 5 7504 7504 37520 281550080
1965	953934 142 11652 12837 9.0025656 9.0051656 5 2250524 2250565 11252781 25325016048089
1966	954076 174 11670 12915 9.0026328 9.0053864 6 2258045 2258086 13548431 30593330429121
1967	954250 103 11670 12895 9.0026328 9.0053192 4 7504 7504 30016 225240064
1968	954353 138 11670 12915 9.0026328 9.0053864 6 0 0 0 0
1969	954491 130 11670 12915 9.0026328 9.0053864 5 7504 7504 37520 281550080
1970	954621 145 11670 12915 9.0026328 9.0053864 5 2250541 2250582 11252866 25325398644088
1971	954766 162 11691 12961 9.0027 9.0056072 6 2258061 2258102 13548527 30593763980449
1972	954928 99 11691 12950 9.0027 9.00554 4 7504 7504 30016 225240064
1973	955027 127 11691 12961 9.0027 9.0056072 6 0 0 0 0
1974	955154 121 11691 12961 9.0027 9.0056072 5 7504 7504 37520 281550080
1975	955275 136 11691 12961 9.0027 9.0056072 5 2250557 2250598 11252946 25325758737080
2010	955411 144 11942 12566 9.0033096 9.004676 5 2250473 2250513 11252485 25323683736965
2011	955555 144 11942 12566 9.0033096 9.004676 5 2250592 2250623 11253052 25326235864070
2012	955699 115 11942 12566 9.0033096 9.004676 5 0 40 40 1600
2013	955814 117 11942 12521 9.0033096 9.0046088 5 0 31 62 1862
2014	955931 116 11975 12638 9.0033768 9.0048104 4 2250490 2250510 9002000 20259001000400
2015	956047 116 11975 12638 9.0033768 9.0048104 4 2250608 2250609 9002434 20260954481090
2016	956163 93 11975 12638 9.0033768 9.0048104 4 0 20 20 400
2017	956256 69 11975 12604 9.0033768 9.0047432 3 0 1 1 1
2018	956325 91 12000 12566 9.0034712 9.004676 4 0 0 0 0
2019	956416 29 12003 12003 9.0034712 9.0034712 1 2250592 2250592 2250592 5065164350464
2020	956445 116 12032 12719 9.0035384 9.0049448 4 2250507 2250527 9002068 20259307069556
2021	956561 116 12032 12719 9.0035384 9.0049448 4 2250625 2250626 9002502 20261260565002
2022	956677 93 12032 12719 9.0035384 9.0049448 4 0 20 20 400
2023	956770 69 12032 12690 9.0035384 9.0048776 3 0 1 1 1
2024	956839 69 12052 12638 9.0036168 9.0048104 3 0 0 0 0
2025	956908 143 12073 12837 9.003684 9.0051656 5 2250524 2250564 11252740 25324831503440
2026	957051 143 12073 12837 9.003684 9.0051656 5 2250642 2250673 11253302 25327361181770
2027	957194 114 12073 12837 9.003684 9.0051656 5 0 40 40 1600
2028	957308 114 12073 12801 9.003684 9.0050984 5 0 31 62 1862
2029	957422 69 12092 12719 9.0037624 9.0049448 3 0 0 0 0
2030	957491 144 12119 12915 9.0038296 9.0053864 5 2250541 2250581 11252825 25325214098045
2031	957635 144 12119 12915 9.0038296 9.0053864 5 2250659 2250690 11253387 25327743795483
2032	957779 115 12119 12915 9.0038296 9.0053864 5 0 40 40 1600
2033	957894 116 12119 12895 9.0038296 9.0053192 5 0 31 62 1862
2034	958010 91 12152 12837 9.003924 9.0051656 4 0 0 0 0
2035	958101 28 12155 12155 9.003924 9.003924 1 2250642 2250642 2250642 5065389412164
2043	958129 141 12189 12961 9.0039912 9.0056072 5 2250557 2250597 11252905 25325574189725
2044	958270 141 12189 12961 9.0039912 9.0056072 5 2250675 2250706 11253467 25328103905147
2045	958411 112 12189 12961 9.0039912 9.0056072 5 0 40 40 1600
2046	958523 111 12189 12950 9.0039912 9.00554 5 0 31 62 1862
2047	958634 91 12229 12915 9.0040856 9.0053864 4 0 0 0 0
2048	958725 29 12232 12232 9.0040856 9.0040856 1 2250659 2250659 2250659 5065465934281
2056	958754 88 12282 12961 9.00418 9.0056072 4 0 0 0 0
2057	958842 27 12285 12285 9.00418 9.00418 1 2250675 2250675 2250675 5065537955625
2072	958869 31 12479 12479 9.0045416 9.0045416 1 0.0010704 0.0010704 0.0010704 1.14575616e-06
2073	958900 31 12479 12479 9.0045416 9.0045416 1 0.0001338 0.0001338 0.0001338 1.790244e-08
2074	958931 31 12479 12479 9.0045416 9.0045416 1 0.6563838 0.6563838 0.6563838 0.43083969290244
2075	958962 30 12479 12479 9.0045416 9.0045416 1 2.625669 2.625669 2.625669 6.894137697561
2076	958992 52 12479 12521 9.0045416 9.0046088 2 1072 1608 2680 3734848
2077	959044 64 12479 12521 9.0045416 9.0046088 2 4294967295 4294967295 8589934590 3.6893488130239e+19
2085	959108 26 12604 12604 9.0047432 9.0047432 1 1072 1072 1072 1149184
2086	959134 32 12604 12604 9.0047432 9.0047432 1 4294967295 4294967295 4294967295 1.844674406512e+19
2094	959166 26 12690 12690 9.0048776 9.0048776 1 1072 1072 1072 1149184
2095	959192 32 12690 12690 9.0048776 9.0048776 1 4294967295 4294967295 4294967295 1.844674406512e+19
2096	959224 31 12766 12766 9.0050312 9.0050312 1 0.0011072 0.0011072 0.0011072 1.22589184e-06
2097	959255 31 12766 12766 9.0050312 9.0050312 1 0.0001384 0.0001384 0.0001384 1.915456e-08
2098	959286 31 12766 12766 9.0050312 9.0050312 1 0.6563884 0.6563884 0.6563884 0.43084573165456
2099	959317 30 12766 12766 9.0050312 9.0050312 1 2.625692 2.625692 2.625692 6.894258478864
2100	959347 52 12766 12801 9.0050312 9.0050984 2 1072 1608 2680 3734848
2101	959399 64 12766 12801 9.0050312 9.0050984 2 4294967295 4294967295 8589934590 3.6893488130239e+19
2102	959463 30 12866 12866 9.005252 9.005252 1 0.0011664 0.0011664 0.0011664 1.36048896e-06
2103	959493 30 12866 12866 9.005252 9.005252 1 0.0001458 0.0001458 0.0001458 2.125764e-08
2104	959523 30 12866 12866 9.005252 9.005252 1 0.6563958 0.6563958 0.6563958 0.43085544625764
2105	959553 29 12866 12866 9.005252 9.005252 1 2.625729 2.625729 2.625729 6.894452781441
2106	959582 51 12866 12895 9.005252 9.0053192 2 1072 1608 2680 3734848
2107	959633 63 12866 12895 9.005252 9.0053192 2 4294967295 4294967295 8589934590 3.6893488130239e+19
2108	959696 31 12938 12938 9.0054728 9.0054728 1 0.0012928 0.0012928 0.0012928 1.67133184e-06
2109	959727 31 12938 12938 9.0054728 9.0054728 1 0.0001616 0.0001616 0.0001616 2.611456e-08
2110	959758 31 12938 12938 9.0054728 9.0054728 1 0.6564116 0.6564116 0.6564116 0.43087618861456
2111	959789 30 12938 12938 9.0054728 9.0054728 1 2.625808 2.625808 2.625808 6.894867652864
2112	959819 50 12938 12950 9.0054728 9.00554 2 1072 1608 2680 3734848
2113	959869 62 12938 12950 9.0054728 9.00554 2 4294967295 4294967295 8589934590 3.6893488130239e+19
