file 5234418 1671037506                                         
version 3
run General-0-20221214-18:05:06-81734
attr configname General
attr datetime 20221214-18:05:06
attr datetimef 20221214-180506
attr experiment General
attr inifile ./simulations/omnetpp.ini
attr iterationvars "$bnum=int(uniform(2, 5)), $hnum=int(uniform(2, 5)), $xnum=int(uniform(1, 2))"
attr iterationvarsd bnum=int(uniform(2,_5))/hnum=int(uniform(2,_5))/xnum=int(uniform(1,_2))
attr iterationvarsf bnum=int(uniform(2,_5)),hnum=int(uniform(2,_5)),xnum=int(uniform(1,_2))-
attr measurement "$bnum=int(uniform(2, 5)), $hnum=int(uniform(2, 5)), $xnum=int(uniform(1, 2))"
attr network Network
attr processid 81734
attr repetition 0
attr replication #0
attr resultdir results
attr runnumber 0
attr seedset 0
itervar bnum "int(uniform(2, 5))"
itervar hnum "int(uniform(2, 5))"
itervar xnum "int(uniform(1, 2))"
config image-path ../../omnetpp-6.0.1/samples/inet4.4/images
config network Network
config sim-time-limit 300s
config output-scalar-file results/scalars.sca
config output-vector-file results/vectors.vec
config seed-0-mt 1
config *.configurator.dumpAddresses true
config *.configurator.dumpTopology true
config *.configurator.dumpLinks true
config *.configurator.dumpRoutes true
config *.configurator.config "xmldoc(\"config.xml\")"
config *.visualizer.interfaceTableVisualizer.displayInterfaceTables true
config *.visualizer.interfaceTableVisualizer.nodeFilter "\"not (*router*)\""
config *.cableBandwidth 100Mbps
config *.cableLength 20km
config *.cableBandwidth.param-record-as-scalar true
config *.cableLength.param-record-as-scalar true
config *.*.ipv4.arp.typename GlobalArp
config *.*.ipv4.routingTable.netmaskRoutes "\"\""
config *.*router.eth[*].queue.typename DropTailQueue
config *.*router.eth[*].queue.packetCapacity 10
config *.server.numApps 1
config *.server.app[0].typename ServerApp
config *.server.app[0].heartbeatThreshold 15
config *.bunker_number "int(uniform(2, 5))"
config *.host_number "int(uniform(2, 5))"
config *.nonExist_host_number "int(uniform(1, 2))"
config *.bunker_number.param-record-as-scalar true
config *.host_number.param-record-as-scalar true
config *.nonExist_host_number.param-record-as-scalar true
config *.bunkerhost[*].numApps 2
config *.bunkerhost[*].app[*].destAddress "\"server\""
config *.bunkerhost[*].app[0].sendInterval "int(uniform(5s, 10s))"
config *.bunkerhost[*].app[1].sendInterval "int(uniform(6s, 12s))"
config *.bunkerhost[*].app[0].typename HeartBeatApp
config *.bunkerhost[*].app[1].typename ClientApp
config *.bunkerhost[*].app[1].bunker_number "int(uniform(2, 5))"
config *.bunkerhost[*].app[1].host_number "int(uniform(2, 5))"
config *.bunkerhost[*].app[1].nonExist_host_number "int(uniform(1, 2))"

vector 0 Network.server.udp passedUpPk:vector(count) ETV
attr interpolationmode none
attr recordingmode vector(count)
attr source packetSentToUpper
attr title "packets passed up, count"
vector 1 Network.server.udp droppedPkWrongPort:vector(count) ETV
attr interpolationmode none
attr recordingmode vector(count)
attr source packetDropReasonIsNoPortFound(packetDropped)
attr title "packets dropped (wrong port), count"
vector 2 Network.server.udp droppedPkBadChecksum:vector(count) ETV
attr interpolationmode none
attr recordingmode vector(count)
attr source packetDropReasonIsIncorrectlyReceived(packetDropped)
attr title "packets dropped (checksum error), count"
vector 3 Network.bunkerhost[0].udp passedUpPk:vector(count) ETV
attr interpolationmode none
attr recordingmode vector(count)
attr source packetSentToUpper
attr title "packets passed up, count"
vector 4 Network.bunkerhost[0].udp droppedPkWrongPort:vector(count) ETV
attr interpolationmode none
attr recordingmode vector(count)
attr source packetDropReasonIsNoPortFound(packetDropped)
attr title "packets dropped (wrong port), count"
vector 5 Network.bunkerhost[0].udp droppedPkBadChecksum:vector(count) ETV
attr interpolationmode none
attr recordingmode vector(count)
attr source packetDropReasonIsIncorrectlyReceived(packetDropped)
attr title "packets dropped (checksum error), count"
vector 6 Network.bunkerhost[1].udp passedUpPk:vector(count) ETV
attr interpolationmode none
attr recordingmode vector(count)
attr source packetSentToUpper
attr title "packets passed up, count"
vector 7 Network.bunkerhost[1].udp droppedPkWrongPort:vector(count) ETV
attr interpolationmode none
attr recordingmode vector(count)
attr source packetDropReasonIsNoPortFound(packetDropped)
attr title "packets dropped (wrong port), count"
vector 8 Network.bunkerhost[1].udp droppedPkBadChecksum:vector(count) ETV
attr interpolationmode none
attr recordingmode vector(count)
attr source packetDropReasonIsIncorrectlyReceived(packetDropped)
attr title "packets dropped (checksum error), count"
vector 9 Network.bunkerhost[2].udp passedUpPk:vector(count) ETV
attr interpolationmode none
attr recordingmode vector(count)
attr source packetSentToUpper
attr title "packets passed up, count"
vector 10 Network.bunkerhost[2].udp droppedPkWrongPort:vector(count) ETV
attr interpolationmode none
attr recordingmode vector(count)
attr source packetDropReasonIsNoPortFound(packetDropped)
attr title "packets dropped (wrong port), count"
vector 11 Network.bunkerhost[2].udp droppedPkBadChecksum:vector(count) ETV
attr interpolationmode none
attr recordingmode vector(count)
attr source packetDropReasonIsIncorrectlyReceived(packetDropped)
attr title "packets dropped (checksum error), count"
vector 12 Network.bunkerhost[3].udp passedUpPk:vector(count) ETV
attr interpolationmode none
attr recordingmode vector(count)
attr source packetSentToUpper
attr title "packets passed up, count"
vector 13 Network.bunkerhost[3].udp droppedPkWrongPort:vector(count) ETV
attr interpolationmode none
attr recordingmode vector(count)
attr source packetDropReasonIsNoPortFound(packetDropped)
attr title "packets dropped (wrong port), count"
vector 14 Network.bunkerhost[3].udp droppedPkBadChecksum:vector(count) ETV
attr interpolationmode none
attr recordingmode vector(count)
attr source packetDropReasonIsIncorrectlyReceived(packetDropped)
attr title "packets dropped (checksum error), count"
vector 15 Network.bunkerhost[4].udp passedUpPk:vector(count) ETV
attr interpolationmode none
attr recordingmode vector(count)
attr source packetSentToUpper
attr title "packets passed up, count"
vector 16 Network.bunkerhost[4].udp droppedPkWrongPort:vector(count) ETV
attr interpolationmode none
attr recordingmode vector(count)
attr source packetDropReasonIsNoPortFound(packetDropped)
attr title "packets dropped (wrong port), count"
vector 17 Network.bunkerhost[4].udp droppedPkBadChecksum:vector(count) ETV
attr interpolationmode none
attr recordingmode vector(count)
attr source packetDropReasonIsIncorrectlyReceived(packetDropped)
attr title "packets dropped (checksum error), count"
vector 18 Network.bunkerhost[5].udp passedUpPk:vector(count) ETV
attr interpolationmode none
attr recordingmode vector(count)
attr source packetSentToUpper
attr title "packets passed up, count"
vector 19 Network.bunkerhost[5].udp droppedPkWrongPort:vector(count) ETV
attr interpolationmode none
attr recordingmode vector(count)
attr source packetDropReasonIsNoPortFound(packetDropped)
attr title "packets dropped (wrong port), count"
vector 20 Network.bunkerhost[5].udp droppedPkBadChecksum:vector(count) ETV
attr interpolationmode none
attr recordingmode vector(count)
attr source packetDropReasonIsIncorrectlyReceived(packetDropped)
attr title "packets dropped (checksum error), count"
vector 21 Network.bunkerhost[6].udp passedUpPk:vector(count) ETV
attr interpolationmode none
attr recordingmode vector(count)
attr source packetSentToUpper
attr title "packets passed up, count"
vector 22 Network.bunkerhost[6].udp droppedPkWrongPort:vector(count) ETV
attr interpolationmode none
attr recordingmode vector(count)
attr source packetDropReasonIsNoPortFound(packetDropped)
attr title "packets dropped (wrong port), count"
vector 23 Network.bunkerhost[6].udp droppedPkBadChecksum:vector(count) ETV
attr interpolationmode none
attr recordingmode vector(count)
attr source packetDropReasonIsIncorrectlyReceived(packetDropped)
attr title "packets dropped (checksum error), count"
vector 24 Network.bunkerhost[7].udp passedUpPk:vector(count) ETV
attr interpolationmode none
attr recordingmode vector(count)
attr source packetSentToUpper
attr title "packets passed up, count"
vector 25 Network.bunkerhost[7].udp droppedPkWrongPort:vector(count) ETV
attr interpolationmode none
attr recordingmode vector(count)
attr source packetDropReasonIsNoPortFound(packetDropped)
attr title "packets dropped (wrong port), count"
vector 26 Network.bunkerhost[7].udp droppedPkBadChecksum:vector(count) ETV
attr interpolationmode none
attr recordingmode vector(count)
attr source packetDropReasonIsIncorrectlyReceived(packetDropped)
attr title "packets dropped (checksum error), count"
vector 27 Network.bunkerhost[8].udp passedUpPk:vector(count) ETV
attr interpolationmode none
attr recordingmode vector(count)
attr source packetSentToUpper
attr title "packets passed up, count"
vector 28 Network.bunkerhost[8].udp droppedPkWrongPort:vector(count) ETV
attr interpolationmode none
attr recordingmode vector(count)
attr source packetDropReasonIsNoPortFound(packetDropped)
attr title "packets dropped (wrong port), count"
vector 29 Network.bunkerhost[8].udp droppedPkBadChecksum:vector(count) ETV
attr interpolationmode none
attr recordingmode vector(count)
attr source packetDropReasonIsIncorrectlyReceived(packetDropped)
attr title "packets dropped (checksum error), count"
vector 30 Network.bunkerhost[9].udp passedUpPk:vector(count) ETV
attr interpolationmode none
attr recordingmode vector(count)
attr source packetSentToUpper
attr title "packets passed up, count"
vector 31 Network.bunkerhost[9].udp droppedPkWrongPort:vector(count) ETV
attr interpolationmode none
attr recordingmode vector(count)
attr source packetDropReasonIsNoPortFound(packetDropped)
attr title "packets dropped (wrong port), count"
vector 32 Network.bunkerhost[9].udp droppedPkBadChecksum:vector(count) ETV
attr interpolationmode none
attr recordingmode vector(count)
attr source packetDropReasonIsIncorrectlyReceived(packetDropped)
attr title "packets dropped (checksum error), count"
vector 33 Network.bunkerhost[10].udp passedUpPk:vector(count) ETV
attr interpolationmode none
attr recordingmode vector(count)
attr source packetSentToUpper
attr title "packets passed up, count"
vector 34 Network.bunkerhost[10].udp droppedPkWrongPort:vector(count) ETV
attr interpolationmode none
attr recordingmode vector(count)
attr source packetDropReasonIsNoPortFound(packetDropped)
attr title "packets dropped (wrong port), count"
vector 35 Network.bunkerhost[10].udp droppedPkBadChecksum:vector(count) ETV
attr interpolationmode none
attr recordingmode vector(count)
attr source packetDropReasonIsIncorrectlyReceived(packetDropped)
attr title "packets dropped (checksum error), count"
vector 36 Network.bunkerhost[11].udp passedUpPk:vector(count) ETV
attr interpolationmode none
attr recordingmode vector(count)
attr source packetSentToUpper
attr title "packets passed up, count"
vector 37 Network.bunkerhost[11].udp droppedPkWrongPort:vector(count) ETV
attr interpolationmode none
attr recordingmode vector(count)
attr source packetDropReasonIsNoPortFound(packetDropped)
attr title "packets dropped (wrong port), count"
vector 38 Network.bunkerhost[11].udp droppedPkBadChecksum:vector(count) ETV
attr interpolationmode none
attr recordingmode vector(count)
attr source packetDropReasonIsIncorrectlyReceived(packetDropped)
attr title "packets dropped (checksum error), count"
vector 39 Network.bunkerhost[2].app[0] throughput:vector ETV
attr recordingmode vector
attr source throughput(packetSent)
attr title throughput
attr unit bps
vector 40 Network.bunkerhost[2].app[0] packetSent:vector(packetBytes) ETV
attr interpolationmode none
attr recordingmode vector(packetBytes)
attr source packetSent
attr title "packets sent, packetBytes"
vector 41 Network.bunkerhost[10].app[0] throughput:vector ETV
attr recordingmode vector
attr source throughput(packetSent)
attr title throughput
attr unit bps
vector 42 Network.bunkerhost[10].app[0] packetSent:vector(packetBytes) ETV
attr interpolationmode none
attr recordingmode vector(packetBytes)
attr source packetSent
attr title "packets sent, packetBytes"
vector 43 Network.bunkerhost[2].udp packetSent:vector(packetBytes) ETV
attr interpolationmode none
attr recordingmode vector(packetBytes)
attr source packetSent
attr title "packets sent, packetBytes"
vector 44 Network.bunkerhost[10].udp packetSent:vector(packetBytes) ETV
attr interpolationmode none
attr recordingmode vector(packetBytes)
attr source packetSent
attr title "packets sent, packetBytes"
vector 45 Network.bunkerhost[2].ethernet encapPk:vector(packetBytes) ETV
attr interpolationmode none
attr recordingmode vector(packetBytes)
attr source encapPk
attr title "packets encapsulated, packetBytes"
vector 46 Network.bunkerhost[10].ethernet encapPk:vector(packetBytes) ETV
attr interpolationmode none
attr recordingmode vector(packetBytes)
attr source encapPk
attr title "packets encapsulated, packetBytes"
vector 47 Network.bunkerhost[2].eth[0].queue incomingPacketLengths:vector ETV
attr interpolationmode none
attr recordingmode vector
attr source packetLength(packetPushStarted)
attr title "incoming packet lengths"
attr unit b
vector 48 Network.bunkerhost[2].eth[0].queue incomingDataRate:vector ETV
attr interpolationmode linear
attr recordingmode vector
attr source throughput(packetPushStarted)
attr title "incoming datarate"
attr unit bps
vector 49 Network.bunkerhost[2].eth[0].queue queueingTime:vector ETV
attr interpolationmode none
attr recordingmode vector
attr source queueingTime(packetPulled)
attr title "queueing times"
attr unit s
vector 50 Network.bunkerhost[2].eth[0].queue outgoingPacketLengths:vector ETV
attr interpolationmode none
attr recordingmode vector
attr source packetLength(packetPulled)
attr title "outgoing packet lengths"
attr unit b
vector 51 Network.bunkerhost[2].eth[0].queue outgoingDataRate:vector ETV
attr interpolationmode linear
attr recordingmode vector
attr source throughput(packetPulled)
attr title "outgoing datarate"
attr unit bps
vector 52 Network.bunkerhost[2].eth[0].mac packetReceivedFromUpper:vector(packetBytes) ETV
attr interpolationmode none
attr recordingmode vector(packetBytes)
attr source packetReceivedFromUpper
attr title "packet bytes from higher layer, packetBytes"
vector 53 Network.bunkerhost[2].eth[0].queue queueLength:vector ETV
attr autoWarmupFilter false
attr interpolationmode sample-hold
attr recordingmode vector
attr source "warmup(atomic(constant0(packetPushEnded) + count(packetPushStarted) - count(packetPulled) - count(packetRemoved) - count(packetDropped)))"
attr title "queue length"
attr unit pk
vector 54 Network.bunkerhost[2].eth[0].queue queueBitLength:vector ETV
attr autoWarmupFilter false
attr interpolationmode sample-hold
attr recordingmode vector
attr source "warmup(atomic(constant0(packetPushEnded) + sum(packetLength(packetPushStarted)) - sum(packetLength(packetPulled)) - sum(packetLength(packetRemoved)) - sum(packetLength(packetDropped))))"
attr title "queue bit length"
attr unit b
vector 55 Network.bunkerhost[10].eth[0].queue incomingPacketLengths:vector ETV
attr interpolationmode none
attr recordingmode vector
attr source packetLength(packetPushStarted)
attr title "incoming packet lengths"
attr unit b
vector 56 Network.bunkerhost[10].eth[0].queue incomingDataRate:vector ETV
attr interpolationmode linear
attr recordingmode vector
attr source throughput(packetPushStarted)
attr title "incoming datarate"
attr unit bps
vector 57 Network.bunkerhost[10].eth[0].queue queueingTime:vector ETV
attr interpolationmode none
attr recordingmode vector
attr source queueingTime(packetPulled)
attr title "queueing times"
attr unit s
vector 58 Network.bunkerhost[10].eth[0].queue outgoingPacketLengths:vector ETV
attr interpolationmode none
attr recordingmode vector
attr source packetLength(packetPulled)
attr title "outgoing packet lengths"
attr unit b
vector 59 Network.bunkerhost[10].eth[0].queue outgoingDataRate:vector ETV
attr interpolationmode linear
attr recordingmode vector
attr source throughput(packetPulled)
attr title "outgoing datarate"
attr unit bps
vector 60 Network.bunkerhost[10].eth[0].mac packetReceivedFromUpper:vector(packetBytes) ETV
attr interpolationmode none
attr recordingmode vector(packetBytes)
attr source packetReceivedFromUpper
attr title "packet bytes from higher layer, packetBytes"
vector 61 Network.bunkerhost[10].eth[0].queue queueLength:vector ETV
attr autoWarmupFilter false
attr interpolationmode sample-hold
attr recordingmode vector
attr source "warmup(atomic(constant0(packetPushEnded) + count(packetPushStarted) - count(packetPulled) - count(packetRemoved) - count(packetDropped)))"
attr title "queue length"
attr unit pk
vector 62 Network.bunkerhost[10].eth[0].queue queueBitLength:vector ETV
attr autoWarmupFilter false
attr interpolationmode sample-hold
attr recordingmode vector
attr source "warmup(atomic(constant0(packetPushEnded) + sum(packetLength(packetPushStarted)) - sum(packetLength(packetPulled)) - sum(packetLength(packetRemoved)) - sum(packetLength(packetDropped))))"
attr title "queue bit length"
attr unit b
vector 63 Network.bunkerhost[2].eth[0].mac txPk:vector(packetBytes) ETV
attr interpolationmode none
attr recordingmode vector(packetBytes)
attr source packetSentToLower
attr title "packets transmitted, packetBytes"
vector 64 Network.bunkerhost[10].eth[0].mac txPk:vector(packetBytes) ETV
attr interpolationmode none
attr recordingmode vector(packetBytes)
attr source packetSentToLower
attr title "packets transmitted, packetBytes"
vector 65 Network.bunkerrouter[0].eth[3].mac rxPkOk:vector(packetBytes) ETV
attr interpolationmode none
attr recordingmode vector(packetBytes)
attr source rxPkOk
attr title "packets received OK, packetBytes"
vector 66 Network.bunkerrouter[0].eth[3].mac passedUpPk:vector(packetBytes) ETV
attr interpolationmode none
attr recordingmode vector(packetBytes)
attr source packetSentToUpper
attr title "packets passed to higher layer, packetBytes"
vector 67 Network.bunkerrouter[2].eth[3].mac rxPkOk:vector(packetBytes) ETV
attr interpolationmode none
attr recordingmode vector(packetBytes)
attr source rxPkOk
attr title "packets received OK, packetBytes"
vector 68 Network.bunkerrouter[2].eth[3].mac passedUpPk:vector(packetBytes) ETV
attr interpolationmode none
attr recordingmode vector(packetBytes)
attr source packetSentToUpper
attr title "packets passed to higher layer, packetBytes"
vector 69 Network.bunkerrouter[0].ethernet decapPk:vector(packetBytes) ETV
attr interpolationmode none
attr recordingmode vector(packetBytes)
attr source decapPk
attr title "packets decapsulated, packetBytes"
vector 70 Network.bunkerrouter[2].ethernet decapPk:vector(packetBytes) ETV
attr interpolationmode none
attr recordingmode vector(packetBytes)
attr source decapPk
attr title "packets decapsulated, packetBytes"
vector 71 Network.bunkerrouter[0].ethernet encapPk:vector(packetBytes) ETV
attr interpolationmode none
attr recordingmode vector(packetBytes)
attr source encapPk
attr title "packets encapsulated, packetBytes"
vector 72 Network.bunkerrouter[2].ethernet encapPk:vector(packetBytes) ETV
attr interpolationmode none
attr recordingmode vector(packetBytes)
attr source encapPk
attr title "packets encapsulated, packetBytes"
vector 73 Network.bunkerrouter[0].eth[0].queue incomingPacketLengths:vector ETV
attr interpolationmode none
attr recordingmode vector
attr source packetLength(packetPushStarted)
attr title "incoming packet lengths"
attr unit b
vector 74 Network.bunkerrouter[0].eth[0].queue incomingDataRate:vector ETV
attr interpolationmode linear
attr recordingmode vector
attr source throughput(packetPushStarted)
attr title "incoming datarate"
attr unit bps
vector 75 Network.bunkerrouter[0].eth[0].queue queueingTime:vector ETV
attr interpolationmode none
attr recordingmode vector
attr source queueingTime(packetPulled)
attr title "queueing times"
attr unit s
vector 76 Network.bunkerrouter[0].eth[0].queue outgoingPacketLengths:vector ETV
attr interpolationmode none
attr recordingmode vector
attr source packetLength(packetPulled)
attr title "outgoing packet lengths"
attr unit b
vector 77 Network.bunkerrouter[0].eth[0].queue outgoingDataRate:vector ETV
attr interpolationmode linear
attr recordingmode vector
attr source throughput(packetPulled)
attr title "outgoing datarate"
attr unit bps
vector 78 Network.bunkerrouter[0].eth[0].mac packetReceivedFromUpper:vector(packetBytes) ETV
attr interpolationmode none
attr recordingmode vector(packetBytes)
attr source packetReceivedFromUpper
attr title "packet bytes from higher layer, packetBytes"
vector 79 Network.bunkerrouter[0].eth[0].queue queueLength:vector ETV
attr autoWarmupFilter false
attr interpolationmode sample-hold
attr recordingmode vector
attr source "warmup(atomic(constant0(packetPushEnded) + count(packetPushStarted) - count(packetPulled) - count(packetRemoved) - count(packetDropped)))"
attr title "queue length"
attr unit pk
vector 80 Network.bunkerrouter[0].eth[0].queue queueBitLength:vector ETV
attr autoWarmupFilter false
attr interpolationmode sample-hold
attr recordingmode vector
attr source "warmup(atomic(constant0(packetPushEnded) + sum(packetLength(packetPushStarted)) - sum(packetLength(packetPulled)) - sum(packetLength(packetRemoved)) - sum(packetLength(packetDropped))))"
attr title "queue bit length"
attr unit b
vector 81 Network.bunkerrouter[2].eth[0].queue incomingPacketLengths:vector ETV
attr interpolationmode none
attr recordingmode vector
attr source packetLength(packetPushStarted)
attr title "incoming packet lengths"
attr unit b
vector 82 Network.bunkerrouter[2].eth[0].queue incomingDataRate:vector ETV
attr interpolationmode linear
attr recordingmode vector
attr source throughput(packetPushStarted)
attr title "incoming datarate"
attr unit bps
vector 83 Network.bunkerrouter[2].eth[0].queue queueingTime:vector ETV
attr interpolationmode none
attr recordingmode vector
attr source queueingTime(packetPulled)
attr title "queueing times"
attr unit s
vector 84 Network.bunkerrouter[2].eth[0].queue outgoingPacketLengths:vector ETV
attr interpolationmode none
attr recordingmode vector
attr source packetLength(packetPulled)
attr title "outgoing packet lengths"
attr unit b
vector 85 Network.bunkerrouter[2].eth[0].queue outgoingDataRate:vector ETV
attr interpolationmode linear
attr recordingmode vector
attr source throughput(packetPulled)
attr title "outgoing datarate"
attr unit bps
vector 86 Network.bunkerrouter[2].eth[0].mac packetReceivedFromUpper:vector(packetBytes) ETV
attr interpolationmode none
attr recordingmode vector(packetBytes)
attr source packetReceivedFromUpper
attr title "packet bytes from higher layer, packetBytes"
vector 87 Network.bunkerrouter[2].eth[0].queue queueLength:vector ETV
attr autoWarmupFilter false
attr interpolationmode sample-hold
attr recordingmode vector
attr source "warmup(atomic(constant0(packetPushEnded) + count(packetPushStarted) - count(packetPulled) - count(packetRemoved) - count(packetDropped)))"
attr title "queue length"
attr unit pk
vector 88 Network.bunkerrouter[2].eth[0].queue queueBitLength:vector ETV
attr autoWarmupFilter false
attr interpolationmode sample-hold
attr recordingmode vector
attr source "warmup(atomic(constant0(packetPushEnded) + sum(packetLength(packetPushStarted)) - sum(packetLength(packetPulled)) - sum(packetLength(packetRemoved)) - sum(packetLength(packetDropped))))"
attr title "queue bit length"
attr unit b
vector 89 Network.bunkerrouter[0].eth[0].mac txPk:vector(packetBytes) ETV
attr interpolationmode none
attr recordingmode vector(packetBytes)
attr source packetSentToLower
attr title "packets transmitted, packetBytes"
vector 90 Network.bunkerrouter[2].eth[0].mac txPk:vector(packetBytes) ETV
attr interpolationmode none
attr recordingmode vector(packetBytes)
attr source packetSentToLower
attr title "packets transmitted, packetBytes"
vector 91 Network.mainrouter.eth[1].mac rxPkOk:vector(packetBytes) ETV
attr interpolationmode none
attr recordingmode vector(packetBytes)
attr source rxPkOk
attr title "packets received OK, packetBytes"
vector 92 Network.mainrouter.eth[1].mac passedUpPk:vector(packetBytes) ETV
attr interpolationmode none
attr recordingmode vector(packetBytes)
attr source packetSentToUpper
attr title "packets passed to higher layer, packetBytes"
vector 93 Network.mainrouter.eth[3].mac rxPkOk:vector(packetBytes) ETV
attr interpolationmode none
attr recordingmode vector(packetBytes)
attr source rxPkOk
attr title "packets received OK, packetBytes"
vector 94 Network.mainrouter.eth[3].mac passedUpPk:vector(packetBytes) ETV
attr interpolationmode none
attr recordingmode vector(packetBytes)
attr source packetSentToUpper
attr title "packets passed to higher layer, packetBytes"
vector 95 Network.mainrouter.ethernet decapPk:vector(packetBytes) ETV
attr interpolationmode none
attr recordingmode vector(packetBytes)
attr source decapPk
attr title "packets decapsulated, packetBytes"
vector 96 Network.mainrouter.ethernet encapPk:vector(packetBytes) ETV
attr interpolationmode none
attr recordingmode vector(packetBytes)
attr source encapPk
attr title "packets encapsulated, packetBytes"
vector 97 Network.mainrouter.eth[0].queue incomingPacketLengths:vector ETV
attr interpolationmode none
attr recordingmode vector
attr source packetLength(packetPushStarted)
attr title "incoming packet lengths"
attr unit b
vector 98 Network.mainrouter.eth[0].queue incomingDataRate:vector ETV
attr interpolationmode linear
attr recordingmode vector
attr source throughput(packetPushStarted)
attr title "incoming datarate"
attr unit bps
vector 99 Network.mainrouter.eth[0].queue queueingTime:vector ETV
attr interpolationmode none
attr recordingmode vector
attr source queueingTime(packetPulled)
attr title "queueing times"
attr unit s
vector 100 Network.mainrouter.eth[0].queue outgoingPacketLengths:vector ETV
attr interpolationmode none
attr recordingmode vector
attr source packetLength(packetPulled)
attr title "outgoing packet lengths"
attr unit b
vector 101 Network.mainrouter.eth[0].queue outgoingDataRate:vector ETV
attr interpolationmode linear
attr recordingmode vector
attr source throughput(packetPulled)
attr title "outgoing datarate"
attr unit bps
vector 102 Network.mainrouter.eth[0].mac packetReceivedFromUpper:vector(packetBytes) ETV
attr interpolationmode none
attr recordingmode vector(packetBytes)
attr source packetReceivedFromUpper
attr title "packet bytes from higher layer, packetBytes"
vector 103 Network.mainrouter.eth[0].queue queueLength:vector ETV
attr autoWarmupFilter false
attr interpolationmode sample-hold
attr recordingmode vector
attr source "warmup(atomic(constant0(packetPushEnded) + count(packetPushStarted) - count(packetPulled) - count(packetRemoved) - count(packetDropped)))"
attr title "queue length"
attr unit pk
vector 104 Network.mainrouter.eth[0].queue queueBitLength:vector ETV
attr autoWarmupFilter false
attr interpolationmode sample-hold
attr recordingmode vector
attr source "warmup(atomic(constant0(packetPushEnded) + sum(packetLength(packetPushStarted)) - sum(packetLength(packetPulled)) - sum(packetLength(packetRemoved)) - sum(packetLength(packetDropped))))"
attr title "queue bit length"
attr unit b
vector 105 Network.mainrouter.eth[0].mac txPk:vector(packetBytes) ETV
attr interpolationmode none
attr recordingmode vector(packetBytes)
attr source packetSentToLower
attr title "packets transmitted, packetBytes"
vector 106 Network.server.eth[0].mac rxPkOk:vector(packetBytes) ETV
attr interpolationmode none
attr recordingmode vector(packetBytes)
attr source rxPkOk
attr title "packets received OK, packetBytes"
vector 107 Network.server.eth[0].mac passedUpPk:vector(packetBytes) ETV
attr interpolationmode none
attr recordingmode vector(packetBytes)
attr source packetSentToUpper
attr title "packets passed to higher layer, packetBytes"
vector 108 Network.server.ethernet decapPk:vector(packetBytes) ETV
attr interpolationmode none
attr recordingmode vector(packetBytes)
attr source decapPk
attr title "packets decapsulated, packetBytes"
vector 109 Network.server.udp packetReceived:vector(packetBytes) ETV
attr interpolationmode none
attr recordingmode vector(packetBytes)
attr source packetReceived
attr title "packets received, packetBytes"
vector 110 Network.server.app[0] endtoenddelay:vector ETV
attr interpolationmode linear
attr recordingmode vector
attr source endtoenddelay
attr title "End-to-end Delay"
vector 111 Network.server.app[0] packetReceived:vector(packetBytes) ETV
attr interpolationmode none
attr recordingmode vector(packetBytes)
attr source packetReceived
attr title "packets received, packetBytes"
vector 112 Network.server.app[0] rcvdPkLifetime:vector ETV
attr interpolationmode none
attr recordingmode vector
attr source dataAge(packetReceived)
attr title "received packet lifetime"
attr unit s
vector 113 Network.bunkerhost[6].app[1] throughput:vector ETV
attr recordingmode vector
attr source throughput(packetSent)
attr title throughput
attr unit bps
vector 114 Network.bunkerhost[6].app[1] packetSent:vector(packetBytes) ETV
attr interpolationmode none
attr recordingmode vector(packetBytes)
attr source packetSent
attr title "packets sent, packetBytes"
vector 115 Network.bunkerhost[6].udp packetSent:vector(packetBytes) ETV
attr interpolationmode none
attr recordingmode vector(packetBytes)
attr source packetSent
attr title "packets sent, packetBytes"
vector 116 Network.bunkerhost[6].ethernet encapPk:vector(packetBytes) ETV
attr interpolationmode none
attr recordingmode vector(packetBytes)
attr source encapPk
attr title "packets encapsulated, packetBytes"
vector 117 Network.bunkerhost[6].eth[0].queue incomingPacketLengths:vector ETV
attr interpolationmode none
attr recordingmode vector
attr source packetLength(packetPushStarted)
attr title "incoming packet lengths"
attr unit b
vector 118 Network.bunkerhost[6].eth[0].queue incomingDataRate:vector ETV
attr interpolationmode linear
attr recordingmode vector
attr source throughput(packetPushStarted)
attr title "incoming datarate"
attr unit bps
vector 119 Network.bunkerhost[6].eth[0].queue queueingTime:vector ETV
attr interpolationmode none
attr recordingmode vector
attr source queueingTime(packetPulled)
attr title "queueing times"
attr unit s
vector 120 Network.bunkerhost[6].eth[0].queue outgoingPacketLengths:vector ETV
attr interpolationmode none
attr recordingmode vector
attr source packetLength(packetPulled)
attr title "outgoing packet lengths"
attr unit b
vector 121 Network.bunkerhost[6].eth[0].queue outgoingDataRate:vector ETV
attr interpolationmode linear
attr recordingmode vector
attr source throughput(packetPulled)
attr title "outgoing datarate"
attr unit bps
vector 122 Network.bunkerhost[6].eth[0].mac packetReceivedFromUpper:vector(packetBytes) ETV
attr interpolationmode none
attr recordingmode vector(packetBytes)
attr source packetReceivedFromUpper
attr title "packet bytes from higher layer, packetBytes"
vector 123 Network.bunkerhost[6].eth[0].queue queueLength:vector ETV
attr autoWarmupFilter false
attr interpolationmode sample-hold
attr recordingmode vector
attr source "warmup(atomic(constant0(packetPushEnded) + count(packetPushStarted) - count(packetPulled) - count(packetRemoved) - count(packetDropped)))"
attr title "queue length"
attr unit pk
vector 124 Network.bunkerhost[6].eth[0].queue queueBitLength:vector ETV
attr autoWarmupFilter false
attr interpolationmode sample-hold
attr recordingmode vector
attr source "warmup(atomic(constant0(packetPushEnded) + sum(packetLength(packetPushStarted)) - sum(packetLength(packetPulled)) - sum(packetLength(packetRemoved)) - sum(packetLength(packetDropped))))"
attr title "queue bit length"
attr unit b
vector 125 Network.bunkerhost[6].eth[0].mac txPk:vector(packetBytes) ETV
attr interpolationmode none
attr recordingmode vector(packetBytes)
attr source packetSentToLower
attr title "packets transmitted, packetBytes"
vector 126 Network.bunkerrouter[1].eth[3].mac rxPkOk:vector(packetBytes) ETV
attr interpolationmode none
attr recordingmode vector(packetBytes)
attr source rxPkOk
attr title "packets received OK, packetBytes"
vector 127 Network.bunkerrouter[1].eth[3].mac passedUpPk:vector(packetBytes) ETV
attr interpolationmode none
attr recordingmode vector(packetBytes)
attr source packetSentToUpper
attr title "packets passed to higher layer, packetBytes"
vector 128 Network.bunkerrouter[1].ethernet decapPk:vector(packetBytes) ETV
attr interpolationmode none
attr recordingmode vector(packetBytes)
attr source decapPk
attr title "packets decapsulated, packetBytes"
vector 129 Network.bunkerrouter[1].ethernet encapPk:vector(packetBytes) ETV
attr interpolationmode none
attr recordingmode vector(packetBytes)
attr source encapPk
attr title "packets encapsulated, packetBytes"
vector 130 Network.bunkerrouter[1].eth[0].queue incomingPacketLengths:vector ETV
attr interpolationmode none
attr recordingmode vector
attr source packetLength(packetPushStarted)
attr title "incoming packet lengths"
attr unit b
vector 131 Network.bunkerrouter[1].eth[0].queue incomingDataRate:vector ETV
attr interpolationmode linear
attr recordingmode vector
attr source throughput(packetPushStarted)
attr title "incoming datarate"
attr unit bps
vector 132 Network.bunkerrouter[1].eth[0].queue queueingTime:vector ETV
attr interpolationmode none
attr recordingmode vector
attr source queueingTime(packetPulled)
attr title "queueing times"
attr unit s
vector 133 Network.bunkerrouter[1].eth[0].queue outgoingPacketLengths:vector ETV
attr interpolationmode none
attr recordingmode vector
attr source packetLength(packetPulled)
attr title "outgoing packet lengths"
attr unit b
vector 134 Network.bunkerrouter[1].eth[0].queue outgoingDataRate:vector ETV
attr interpolationmode linear
attr recordingmode vector
attr source throughput(packetPulled)
attr title "outgoing datarate"
attr unit bps
vector 135 Network.bunkerrouter[1].eth[0].mac packetReceivedFromUpper:vector(packetBytes) ETV
attr interpolationmode none
attr recordingmode vector(packetBytes)
attr source packetReceivedFromUpper
attr title "packet bytes from higher layer, packetBytes"
vector 136 Network.bunkerrouter[1].eth[0].queue queueLength:vector ETV
attr autoWarmupFilter false
attr interpolationmode sample-hold
attr recordingmode vector
attr source "warmup(atomic(constant0(packetPushEnded) + count(packetPushStarted) - count(packetPulled) - count(packetRemoved) - count(packetDropped)))"
attr title "queue length"
attr unit pk
vector 137 Network.bunkerrouter[1].eth[0].queue queueBitLength:vector ETV
attr autoWarmupFilter false
attr interpolationmode sample-hold
attr recordingmode vector
attr source "warmup(atomic(constant0(packetPushEnded) + sum(packetLength(packetPushStarted)) - sum(packetLength(packetPulled)) - sum(packetLength(packetRemoved)) - sum(packetLength(packetDropped))))"
attr title "queue bit length"
attr unit b
vector 138 Network.bunkerrouter[1].eth[0].mac txPk:vector(packetBytes) ETV
attr interpolationmode none
attr recordingmode vector(packetBytes)
attr source packetSentToLower
attr title "packets transmitted, packetBytes"
vector 139 Network.mainrouter.eth[2].mac rxPkOk:vector(packetBytes) ETV
attr interpolationmode none
attr recordingmode vector(packetBytes)
attr source rxPkOk
attr title "packets received OK, packetBytes"
vector 140 Network.mainrouter.eth[2].mac passedUpPk:vector(packetBytes) ETV
attr interpolationmode none
attr recordingmode vector(packetBytes)
attr source packetSentToUpper
attr title "packets passed to higher layer, packetBytes"
vector 141 Network.server.app[0] unsuccessfulLookup:vector ETV
attr interpolationmode linear
attr recordingmode vector
attr source unsuccessfulLookup
attr title "Unsuccessful Lookup Count"
vector 142 Network.server.app[0] throughput:vector ETV
attr recordingmode vector
attr source throughput(packetSent)
attr title throughput
attr unit bps
vector 143 Network.server.app[0] packetSent:vector(packetBytes) ETV
attr interpolationmode none
attr recordingmode vector(packetBytes)
attr source packetSent
attr title "packets sent, packetBytes"
vector 144 Network.server.udp packetSent:vector(packetBytes) ETV
attr interpolationmode none
attr recordingmode vector(packetBytes)
attr source packetSent
attr title "packets sent, packetBytes"
vector 145 Network.server.ethernet encapPk:vector(packetBytes) ETV
attr interpolationmode none
attr recordingmode vector(packetBytes)
attr source encapPk
attr title "packets encapsulated, packetBytes"
vector 146 Network.server.eth[0].queue incomingPacketLengths:vector ETV
attr interpolationmode none
attr recordingmode vector
attr source packetLength(packetPushStarted)
attr title "incoming packet lengths"
attr unit b
vector 147 Network.server.eth[0].queue incomingDataRate:vector ETV
attr interpolationmode linear
attr recordingmode vector
attr source throughput(packetPushStarted)
attr title "incoming datarate"
attr unit bps
vector 148 Network.server.eth[0].queue queueingTime:vector ETV
attr interpolationmode none
attr recordingmode vector
attr source queueingTime(packetPulled)
attr title "queueing times"
attr unit s
vector 149 Network.server.eth[0].queue outgoingPacketLengths:vector ETV
attr interpolationmode none
attr recordingmode vector
attr source packetLength(packetPulled)
attr title "outgoing packet lengths"
attr unit b
vector 150 Network.server.eth[0].queue outgoingDataRate:vector ETV
attr interpolationmode linear
attr recordingmode vector
attr source throughput(packetPulled)
attr title "outgoing datarate"
attr unit bps
vector 151 Network.server.eth[0].mac packetReceivedFromUpper:vector(packetBytes) ETV
attr interpolationmode none
attr recordingmode vector(packetBytes)
attr source packetReceivedFromUpper
attr title "packet bytes from higher layer, packetBytes"
vector 152 Network.server.eth[0].queue queueLength:vector ETV
attr autoWarmupFilter false
attr interpolationmode sample-hold
attr recordingmode vector
attr source "warmup(atomic(constant0(packetPushEnded) + count(packetPushStarted) - count(packetPulled) - count(packetRemoved) - count(packetDropped)))"
attr title "queue length"
attr unit pk
vector 153 Network.server.eth[0].queue queueBitLength:vector ETV
attr autoWarmupFilter false
attr interpolationmode sample-hold
attr recordingmode vector
attr source "warmup(atomic(constant0(packetPushEnded) + sum(packetLength(packetPushStarted)) - sum(packetLength(packetPulled)) - sum(packetLength(packetRemoved)) - sum(packetLength(packetDropped))))"
attr title "queue bit length"
attr unit b
vector 154 Network.server.eth[0].mac txPk:vector(packetBytes) ETV
attr interpolationmode none
attr recordingmode vector(packetBytes)
attr source packetSentToLower
attr title "packets transmitted, packetBytes"
vector 155 Network.mainrouter.eth[0].mac rxPkOk:vector(packetBytes) ETV
attr interpolationmode none
attr recordingmode vector(packetBytes)
attr source rxPkOk
attr title "packets received OK, packetBytes"
vector 156 Network.mainrouter.eth[0].mac passedUpPk:vector(packetBytes) ETV
attr interpolationmode none
attr recordingmode vector(packetBytes)
attr source packetSentToUpper
attr title "packets passed to higher layer, packetBytes"
vector 157 Network.mainrouter.eth[2].queue incomingPacketLengths:vector ETV
attr interpolationmode none
attr recordingmode vector
attr source packetLength(packetPushStarted)
attr title "incoming packet lengths"
attr unit b
vector 158 Network.mainrouter.eth[2].queue incomingDataRate:vector ETV
attr interpolationmode linear
attr recordingmode vector
attr source throughput(packetPushStarted)
attr title "incoming datarate"
attr unit bps
vector 159 Network.mainrouter.eth[2].queue queueingTime:vector ETV
attr interpolationmode none
attr recordingmode vector
attr source queueingTime(packetPulled)
attr title "queueing times"
attr unit s
vector 160 Network.mainrouter.eth[2].queue outgoingPacketLengths:vector ETV
attr interpolationmode none
attr recordingmode vector
attr source packetLength(packetPulled)
attr title "outgoing packet lengths"
attr unit b
vector 161 Network.mainrouter.eth[2].queue outgoingDataRate:vector ETV
attr interpolationmode linear
attr recordingmode vector
attr source throughput(packetPulled)
attr title "outgoing datarate"
attr unit bps
vector 162 Network.mainrouter.eth[2].mac packetReceivedFromUpper:vector(packetBytes) ETV
attr interpolationmode none
attr recordingmode vector(packetBytes)
attr source packetReceivedFromUpper
attr title "packet bytes from higher layer, packetBytes"
vector 163 Network.mainrouter.eth[2].queue queueLength:vector ETV
attr autoWarmupFilter false
attr interpolationmode sample-hold
attr recordingmode vector
attr source "warmup(atomic(constant0(packetPushEnded) + count(packetPushStarted) - count(packetPulled) - count(packetRemoved) - count(packetDropped)))"
attr title "queue length"
attr unit pk
vector 164 Network.mainrouter.eth[2].queue queueBitLength:vector ETV
attr autoWarmupFilter false
attr interpolationmode sample-hold
attr recordingmode vector
attr source "warmup(atomic(constant0(packetPushEnded) + sum(packetLength(packetPushStarted)) - sum(packetLength(packetPulled)) - sum(packetLength(packetRemoved)) - sum(packetLength(packetDropped))))"
attr title "queue bit length"
attr unit b
vector 165 Network.mainrouter.eth[2].mac txPk:vector(packetBytes) ETV
attr interpolationmode none
attr recordingmode vector(packetBytes)
attr source packetSentToLower
attr title "packets transmitted, packetBytes"
vector 166 Network.bunkerrouter[1].eth[0].mac rxPkOk:vector(packetBytes) ETV
attr interpolationmode none
attr recordingmode vector(packetBytes)
attr source rxPkOk
attr title "packets received OK, packetBytes"
vector 167 Network.bunkerrouter[1].eth[0].mac passedUpPk:vector(packetBytes) ETV
attr interpolationmode none
attr recordingmode vector(packetBytes)
attr source packetSentToUpper
attr title "packets passed to higher layer, packetBytes"
vector 168 Network.bunkerrouter[1].eth[3].queue incomingPacketLengths:vector ETV
attr interpolationmode none
attr recordingmode vector
attr source packetLength(packetPushStarted)
attr title "incoming packet lengths"
attr unit b
vector 169 Network.bunkerrouter[1].eth[3].queue incomingDataRate:vector ETV
attr interpolationmode linear
attr recordingmode vector
attr source throughput(packetPushStarted)
attr title "incoming datarate"
attr unit bps
vector 170 Network.bunkerrouter[1].eth[3].queue queueingTime:vector ETV
attr interpolationmode none
attr recordingmode vector
attr source queueingTime(packetPulled)
attr title "queueing times"
attr unit s
vector 171 Network.bunkerrouter[1].eth[3].queue outgoingPacketLengths:vector ETV
attr interpolationmode none
attr recordingmode vector
attr source packetLength(packetPulled)
attr title "outgoing packet lengths"
attr unit b
vector 172 Network.bunkerrouter[1].eth[3].queue outgoingDataRate:vector ETV
attr interpolationmode linear
attr recordingmode vector
attr source throughput(packetPulled)
attr title "outgoing datarate"
attr unit bps
vector 173 Network.bunkerrouter[1].eth[3].mac packetReceivedFromUpper:vector(packetBytes) ETV
attr interpolationmode none
attr recordingmode vector(packetBytes)
attr source packetReceivedFromUpper
attr title "packet bytes from higher layer, packetBytes"
vector 174 Network.bunkerrouter[1].eth[3].queue queueLength:vector ETV
attr autoWarmupFilter false
attr interpolationmode sample-hold
attr recordingmode vector
attr source "warmup(atomic(constant0(packetPushEnded) + count(packetPushStarted) - count(packetPulled) - count(packetRemoved) - count(packetDropped)))"
attr title "queue length"
attr unit pk
vector 175 Network.bunkerrouter[1].eth[3].queue queueBitLength:vector ETV
attr autoWarmupFilter false
attr interpolationmode sample-hold
attr recordingmode vector
attr source "warmup(atomic(constant0(packetPushEnded) + sum(packetLength(packetPushStarted)) - sum(packetLength(packetPulled)) - sum(packetLength(packetRemoved)) - sum(packetLength(packetDropped))))"
attr title "queue bit length"
attr unit b
vector 176 Network.bunkerrouter[1].eth[3].mac txPk:vector(packetBytes) ETV
attr interpolationmode none
attr recordingmode vector(packetBytes)
attr source packetSentToLower
attr title "packets transmitted, packetBytes"
vector 177 Network.bunkerhost[6].eth[0].mac rxPkOk:vector(packetBytes) ETV
attr interpolationmode none
attr recordingmode vector(packetBytes)
attr source rxPkOk
attr title "packets received OK, packetBytes"
vector 178 Network.bunkerhost[6].eth[0].mac passedUpPk:vector(packetBytes) ETV
attr interpolationmode none
attr recordingmode vector(packetBytes)
attr source packetSentToUpper
attr title "packets passed to higher layer, packetBytes"
vector 179 Network.bunkerhost[6].ethernet decapPk:vector(packetBytes) ETV
attr interpolationmode none
attr recordingmode vector(packetBytes)
attr source decapPk
attr title "packets decapsulated, packetBytes"
vector 180 Network.bunkerhost[6].udp packetReceived:vector(packetBytes) ETV
attr interpolationmode none
attr recordingmode vector(packetBytes)
attr source packetReceived
attr title "packets received, packetBytes"
vector 181 Network.bunkerhost[6].app[1] endtoenddelay:vector ETV
attr interpolationmode linear
attr recordingmode vector
attr source endtoenddelay
attr title "End-to-end Delay"
vector 182 Network.bunkerhost[6].app[1] packetReceived:vector(packetBytes) ETV
attr interpolationmode none
attr recordingmode vector(packetBytes)
attr source packetReceived
attr title "packets received, packetBytes"
vector 183 Network.bunkerhost[0].app[1] throughput:vector ETV
attr recordingmode vector
attr source throughput(packetSent)
attr title throughput
attr unit bps
vector 184 Network.bunkerhost[0].app[1] packetSent:vector(packetBytes) ETV
attr interpolationmode none
attr recordingmode vector(packetBytes)
attr source packetSent
attr title "packets sent, packetBytes"
vector 185 Network.bunkerhost[3].app[1] throughput:vector ETV
attr recordingmode vector
attr source throughput(packetSent)
attr title throughput
attr unit bps
vector 186 Network.bunkerhost[3].app[1] packetSent:vector(packetBytes) ETV
attr interpolationmode none
attr recordingmode vector(packetBytes)
attr source packetSent
attr title "packets sent, packetBytes"
vector 187 Network.bunkerhost[6].app[0] throughput:vector ETV
attr recordingmode vector
attr source throughput(packetSent)
attr title throughput
attr unit bps
vector 188 Network.bunkerhost[6].app[0] packetSent:vector(packetBytes) ETV
attr interpolationmode none
attr recordingmode vector(packetBytes)
attr source packetSent
attr title "packets sent, packetBytes"
vector 189 Network.bunkerhost[10].app[1] throughput:vector ETV
attr recordingmode vector
attr source throughput(packetSent)
attr title throughput
attr unit bps
vector 190 Network.bunkerhost[10].app[1] packetSent:vector(packetBytes) ETV
attr interpolationmode none
attr recordingmode vector(packetBytes)
attr source packetSent
attr title "packets sent, packetBytes"
vector 191 Network.bunkerhost[0].udp packetSent:vector(packetBytes) ETV
attr interpolationmode none
attr recordingmode vector(packetBytes)
attr source packetSent
attr title "packets sent, packetBytes"
vector 192 Network.bunkerhost[3].udp packetSent:vector(packetBytes) ETV
attr interpolationmode none
attr recordingmode vector(packetBytes)
attr source packetSent
attr title "packets sent, packetBytes"
vector 193 Network.bunkerhost[0].ethernet encapPk:vector(packetBytes) ETV
attr interpolationmode none
attr recordingmode vector(packetBytes)
attr source encapPk
attr title "packets encapsulated, packetBytes"
vector 194 Network.bunkerhost[3].ethernet encapPk:vector(packetBytes) ETV
attr interpolationmode none
attr recordingmode vector(packetBytes)
attr source encapPk
attr title "packets encapsulated, packetBytes"
vector 195 Network.bunkerhost[0].eth[0].queue incomingPacketLengths:vector ETV
attr interpolationmode none
attr recordingmode vector
attr source packetLength(packetPushStarted)
attr title "incoming packet lengths"
attr unit b
vector 196 Network.bunkerhost[0].eth[0].queue incomingDataRate:vector ETV
attr interpolationmode linear
attr recordingmode vector
attr source throughput(packetPushStarted)
attr title "incoming datarate"
attr unit bps
vector 197 Network.bunkerhost[0].eth[0].queue queueingTime:vector ETV
attr interpolationmode none
attr recordingmode vector
attr source queueingTime(packetPulled)
attr title "queueing times"
attr unit s
vector 198 Network.bunkerhost[0].eth[0].queue outgoingPacketLengths:vector ETV
attr interpolationmode none
attr recordingmode vector
attr source packetLength(packetPulled)
attr title "outgoing packet lengths"
attr unit b
vector 199 Network.bunkerhost[0].eth[0].queue outgoingDataRate:vector ETV
attr interpolationmode linear
attr recordingmode vector
attr source throughput(packetPulled)
attr title "outgoing datarate"
attr unit bps
vector 200 Network.bunkerhost[0].eth[0].mac packetReceivedFromUpper:vector(packetBytes) ETV
attr interpolationmode none
attr recordingmode vector(packetBytes)
attr source packetReceivedFromUpper
attr title "packet bytes from higher layer, packetBytes"
vector 201 Network.bunkerhost[0].eth[0].queue queueLength:vector ETV
attr autoWarmupFilter false
attr interpolationmode sample-hold
attr recordingmode vector
attr source "warmup(atomic(constant0(packetPushEnded) + count(packetPushStarted) - count(packetPulled) - count(packetRemoved) - count(packetDropped)))"
attr title "queue length"
attr unit pk
vector 202 Network.bunkerhost[0].eth[0].queue queueBitLength:vector ETV
attr autoWarmupFilter false
attr interpolationmode sample-hold
attr recordingmode vector
attr source "warmup(atomic(constant0(packetPushEnded) + sum(packetLength(packetPushStarted)) - sum(packetLength(packetPulled)) - sum(packetLength(packetRemoved)) - sum(packetLength(packetDropped))))"
attr title "queue bit length"
attr unit b
vector 203 Network.bunkerhost[3].eth[0].queue incomingPacketLengths:vector ETV
attr interpolationmode none
attr recordingmode vector
attr source packetLength(packetPushStarted)
attr title "incoming packet lengths"
attr unit b
vector 204 Network.bunkerhost[3].eth[0].queue incomingDataRate:vector ETV
attr interpolationmode linear
attr recordingmode vector
attr source throughput(packetPushStarted)
attr title "incoming datarate"
attr unit bps
vector 205 Network.bunkerhost[3].eth[0].queue queueingTime:vector ETV
attr interpolationmode none
attr recordingmode vector
attr source queueingTime(packetPulled)
attr title "queueing times"
attr unit s
vector 206 Network.bunkerhost[3].eth[0].queue outgoingPacketLengths:vector ETV
attr interpolationmode none
attr recordingmode vector
attr source packetLength(packetPulled)
attr title "outgoing packet lengths"
attr unit b
vector 207 Network.bunkerhost[3].eth[0].queue outgoingDataRate:vector ETV
attr interpolationmode linear
attr recordingmode vector
attr source throughput(packetPulled)
attr title "outgoing datarate"
attr unit bps
vector 208 Network.bunkerhost[3].eth[0].mac packetReceivedFromUpper:vector(packetBytes) ETV
attr interpolationmode none
attr recordingmode vector(packetBytes)
attr source packetReceivedFromUpper
attr title "packet bytes from higher layer, packetBytes"
vector 209 Network.bunkerhost[3].eth[0].queue queueLength:vector ETV
attr autoWarmupFilter false
attr interpolationmode sample-hold
attr recordingmode vector
attr source "warmup(atomic(constant0(packetPushEnded) + count(packetPushStarted) - count(packetPulled) - count(packetRemoved) - count(packetDropped)))"
attr title "queue length"
attr unit pk
vector 210 Network.bunkerhost[3].eth[0].queue queueBitLength:vector ETV
attr autoWarmupFilter false
attr interpolationmode sample-hold
attr recordingmode vector
attr source "warmup(atomic(constant0(packetPushEnded) + sum(packetLength(packetPushStarted)) - sum(packetLength(packetPulled)) - sum(packetLength(packetRemoved)) - sum(packetLength(packetDropped))))"
attr title "queue bit length"
attr unit b
vector 211 Network.bunkerhost[0].eth[0].mac txPk:vector(packetBytes) ETV
attr interpolationmode none
attr recordingmode vector(packetBytes)
attr source packetSentToLower
attr title "packets transmitted, packetBytes"
vector 212 Network.bunkerhost[3].eth[0].mac txPk:vector(packetBytes) ETV
attr interpolationmode none
attr recordingmode vector(packetBytes)
attr source packetSentToLower
attr title "packets transmitted, packetBytes"
vector 213 Network.bunkerrouter[0].eth[1].mac rxPkOk:vector(packetBytes) ETV
attr interpolationmode none
attr recordingmode vector(packetBytes)
attr source rxPkOk
attr title "packets received OK, packetBytes"
vector 214 Network.bunkerrouter[0].eth[1].mac passedUpPk:vector(packetBytes) ETV
attr interpolationmode none
attr recordingmode vector(packetBytes)
attr source packetSentToUpper
attr title "packets passed to higher layer, packetBytes"
vector 215 Network.bunkerrouter[0].eth[4].mac rxPkOk:vector(packetBytes) ETV
attr interpolationmode none
attr recordingmode vector(packetBytes)
attr source rxPkOk
attr title "packets received OK, packetBytes"
vector 216 Network.bunkerrouter[0].eth[4].mac passedUpPk:vector(packetBytes) ETV
attr interpolationmode none
attr recordingmode vector(packetBytes)
attr source packetSentToUpper
attr title "packets passed to higher layer, packetBytes"
vector 217 Network.server.app[0] successfulLookup:vector ETV
attr interpolationmode linear
attr recordingmode vector
attr source successfulLookup
attr title "Successful Lookup Count"
vector 218 Network.mainrouter.eth[1].queue incomingPacketLengths:vector ETV
attr interpolationmode none
attr recordingmode vector
attr source packetLength(packetPushStarted)
attr title "incoming packet lengths"
attr unit b
vector 219 Network.mainrouter.eth[1].queue incomingDataRate:vector ETV
attr interpolationmode linear
attr recordingmode vector
attr source throughput(packetPushStarted)
attr title "incoming datarate"
attr unit bps
vector 220 Network.mainrouter.eth[1].queue queueingTime:vector ETV
attr interpolationmode none
attr recordingmode vector
attr source queueingTime(packetPulled)
attr title "queueing times"
attr unit s
vector 221 Network.mainrouter.eth[1].queue outgoingPacketLengths:vector ETV
attr interpolationmode none
attr recordingmode vector
attr source packetLength(packetPulled)
attr title "outgoing packet lengths"
attr unit b
vector 222 Network.mainrouter.eth[1].queue outgoingDataRate:vector ETV
attr interpolationmode linear
attr recordingmode vector
attr source throughput(packetPulled)
attr title "outgoing datarate"
attr unit bps
vector 223 Network.mainrouter.eth[1].mac packetReceivedFromUpper:vector(packetBytes) ETV
attr interpolationmode none
attr recordingmode vector(packetBytes)
attr source packetReceivedFromUpper
attr title "packet bytes from higher layer, packetBytes"
vector 224 Network.mainrouter.eth[1].queue queueLength:vector ETV
attr autoWarmupFilter false
attr interpolationmode sample-hold
attr recordingmode vector
attr source "warmup(atomic(constant0(packetPushEnded) + count(packetPushStarted) - count(packetPulled) - count(packetRemoved) - count(packetDropped)))"
attr title "queue length"
attr unit pk
vector 225 Network.mainrouter.eth[1].queue queueBitLength:vector ETV
attr autoWarmupFilter false
attr interpolationmode sample-hold
attr recordingmode vector
attr source "warmup(atomic(constant0(packetPushEnded) + sum(packetLength(packetPushStarted)) - sum(packetLength(packetPulled)) - sum(packetLength(packetRemoved)) - sum(packetLength(packetDropped))))"
attr title "queue bit length"
attr unit b
vector 226 Network.mainrouter.eth[1].mac txPk:vector(packetBytes) ETV
attr interpolationmode none
attr recordingmode vector(packetBytes)
attr source packetSentToLower
attr title "packets transmitted, packetBytes"
vector 227 Network.mainrouter.eth[3].queue incomingPacketLengths:vector ETV
attr interpolationmode none
attr recordingmode vector
attr source packetLength(packetPushStarted)
attr title "incoming packet lengths"
attr unit b
vector 228 Network.mainrouter.eth[3].queue incomingDataRate:vector ETV
attr interpolationmode linear
attr recordingmode vector
attr source throughput(packetPushStarted)
attr title "incoming datarate"
attr unit bps
vector 229 Network.mainrouter.eth[3].queue queueingTime:vector ETV
attr interpolationmode none
attr recordingmode vector
attr source queueingTime(packetPulled)
attr title "queueing times"
attr unit s
vector 230 Network.mainrouter.eth[3].queue outgoingPacketLengths:vector ETV
attr interpolationmode none
attr recordingmode vector
attr source packetLength(packetPulled)
attr title "outgoing packet lengths"
attr unit b
vector 231 Network.mainrouter.eth[3].queue outgoingDataRate:vector ETV
attr interpolationmode linear
attr recordingmode vector
attr source throughput(packetPulled)
attr title "outgoing datarate"
attr unit bps
vector 232 Network.mainrouter.eth[3].mac packetReceivedFromUpper:vector(packetBytes) ETV
attr interpolationmode none
attr recordingmode vector(packetBytes)
attr source packetReceivedFromUpper
attr title "packet bytes from higher layer, packetBytes"
vector 233 Network.mainrouter.eth[3].queue queueLength:vector ETV
attr autoWarmupFilter false
attr interpolationmode sample-hold
attr recordingmode vector
attr source "warmup(atomic(constant0(packetPushEnded) + count(packetPushStarted) - count(packetPulled) - count(packetRemoved) - count(packetDropped)))"
attr title "queue length"
attr unit pk
vector 234 Network.mainrouter.eth[3].queue queueBitLength:vector ETV
attr autoWarmupFilter false
attr interpolationmode sample-hold
attr recordingmode vector
attr source "warmup(atomic(constant0(packetPushEnded) + sum(packetLength(packetPushStarted)) - sum(packetLength(packetPulled)) - sum(packetLength(packetRemoved)) - sum(packetLength(packetDropped))))"
attr title "queue bit length"
attr unit b
vector 235 Network.mainrouter.eth[3].mac txPk:vector(packetBytes) ETV
attr interpolationmode none
attr recordingmode vector(packetBytes)
attr source packetSentToLower
attr title "packets transmitted, packetBytes"
vector 236 Network.bunkerrouter[0].eth[0].mac rxPkOk:vector(packetBytes) ETV
attr interpolationmode none
attr recordingmode vector(packetBytes)
attr source rxPkOk
attr title "packets received OK, packetBytes"
vector 237 Network.bunkerrouter[0].eth[0].mac passedUpPk:vector(packetBytes) ETV
attr interpolationmode none
attr recordingmode vector(packetBytes)
attr source packetSentToUpper
attr title "packets passed to higher layer, packetBytes"
vector 238 Network.bunkerrouter[0].eth[1].queue incomingPacketLengths:vector ETV
attr interpolationmode none
attr recordingmode vector
attr source packetLength(packetPushStarted)
attr title "incoming packet lengths"
attr unit b
vector 239 Network.bunkerrouter[0].eth[1].queue incomingDataRate:vector ETV
attr interpolationmode linear
attr recordingmode vector
attr source throughput(packetPushStarted)
attr title "incoming datarate"
attr unit bps
vector 240 Network.bunkerrouter[0].eth[1].queue queueingTime:vector ETV
attr interpolationmode none
attr recordingmode vector
attr source queueingTime(packetPulled)
attr title "queueing times"
attr unit s
vector 241 Network.bunkerrouter[0].eth[1].queue outgoingPacketLengths:vector ETV
attr interpolationmode none
attr recordingmode vector
attr source packetLength(packetPulled)
attr title "outgoing packet lengths"
attr unit b
vector 242 Network.bunkerrouter[0].eth[1].queue outgoingDataRate:vector ETV
attr interpolationmode linear
attr recordingmode vector
attr source throughput(packetPulled)
attr title "outgoing datarate"
attr unit bps
vector 243 Network.bunkerrouter[0].eth[1].mac packetReceivedFromUpper:vector(packetBytes) ETV
attr interpolationmode none
attr recordingmode vector(packetBytes)
attr source packetReceivedFromUpper
attr title "packet bytes from higher layer, packetBytes"
vector 244 Network.bunkerrouter[0].eth[1].queue queueLength:vector ETV
attr autoWarmupFilter false
attr interpolationmode sample-hold
attr recordingmode vector
attr source "warmup(atomic(constant0(packetPushEnded) + count(packetPushStarted) - count(packetPulled) - count(packetRemoved) - count(packetDropped)))"
attr title "queue length"
attr unit pk
vector 245 Network.bunkerrouter[0].eth[1].queue queueBitLength:vector ETV
attr autoWarmupFilter false
attr interpolationmode sample-hold
attr recordingmode vector
attr source "warmup(atomic(constant0(packetPushEnded) + sum(packetLength(packetPushStarted)) - sum(packetLength(packetPulled)) - sum(packetLength(packetRemoved)) - sum(packetLength(packetDropped))))"
attr title "queue bit length"
attr unit b
vector 246 Network.bunkerrouter[0].eth[1].mac txPk:vector(packetBytes) ETV
attr interpolationmode none
attr recordingmode vector(packetBytes)
attr source packetSentToLower
attr title "packets transmitted, packetBytes"
vector 247 Network.bunkerrouter[2].eth[0].mac rxPkOk:vector(packetBytes) ETV
attr interpolationmode none
attr recordingmode vector(packetBytes)
attr source rxPkOk
attr title "packets received OK, packetBytes"
vector 248 Network.bunkerrouter[2].eth[0].mac passedUpPk:vector(packetBytes) ETV
attr interpolationmode none
attr recordingmode vector(packetBytes)
attr source packetSentToUpper
attr title "packets passed to higher layer, packetBytes"
vector 249 Network.bunkerrouter[2].eth[3].queue incomingPacketLengths:vector ETV
attr interpolationmode none
attr recordingmode vector
attr source packetLength(packetPushStarted)
attr title "incoming packet lengths"
attr unit b
vector 250 Network.bunkerrouter[2].eth[3].queue incomingDataRate:vector ETV
attr interpolationmode linear
attr recordingmode vector
attr source throughput(packetPushStarted)
attr title "incoming datarate"
attr unit bps
vector 251 Network.bunkerrouter[2].eth[3].queue queueingTime:vector ETV
attr interpolationmode none
attr recordingmode vector
attr source queueingTime(packetPulled)
attr title "queueing times"
attr unit s
vector 252 Network.bunkerrouter[2].eth[3].queue outgoingPacketLengths:vector ETV
attr interpolationmode none
attr recordingmode vector
attr source packetLength(packetPulled)
attr title "outgoing packet lengths"
attr unit b
vector 253 Network.bunkerrouter[2].eth[3].queue outgoingDataRate:vector ETV
attr interpolationmode linear
attr recordingmode vector
attr source throughput(packetPulled)
attr title "outgoing datarate"
attr unit bps
vector 254 Network.bunkerrouter[2].eth[3].mac packetReceivedFromUpper:vector(packetBytes) ETV
attr interpolationmode none
attr recordingmode vector(packetBytes)
attr source packetReceivedFromUpper
attr title "packet bytes from higher layer, packetBytes"
vector 255 Network.bunkerrouter[2].eth[3].queue queueLength:vector ETV
attr autoWarmupFilter false
attr interpolationmode sample-hold
attr recordingmode vector
attr source "warmup(atomic(constant0(packetPushEnded) + count(packetPushStarted) - count(packetPulled) - count(packetRemoved) - count(packetDropped)))"
attr title "queue length"
attr unit pk
vector 256 Network.bunkerrouter[2].eth[3].queue queueBitLength:vector ETV
attr autoWarmupFilter false
attr interpolationmode sample-hold
attr recordingmode vector
attr source "warmup(atomic(constant0(packetPushEnded) + sum(packetLength(packetPushStarted)) - sum(packetLength(packetPulled)) - sum(packetLength(packetRemoved)) - sum(packetLength(packetDropped))))"
attr title "queue bit length"
attr unit b
vector 257 Network.bunkerrouter[2].eth[3].mac txPk:vector(packetBytes) ETV
attr interpolationmode none
attr recordingmode vector(packetBytes)
attr source packetSentToLower
attr title "packets transmitted, packetBytes"
vector 258 Network.bunkerrouter[0].eth[4].queue incomingPacketLengths:vector ETV
attr interpolationmode none
attr recordingmode vector
attr source packetLength(packetPushStarted)
attr title "incoming packet lengths"
attr unit b
vector 259 Network.bunkerrouter[0].eth[4].queue incomingDataRate:vector ETV
attr interpolationmode linear
attr recordingmode vector
attr source throughput(packetPushStarted)
attr title "incoming datarate"
attr unit bps
vector 260 Network.bunkerrouter[0].eth[4].queue queueingTime:vector ETV
attr interpolationmode none
attr recordingmode vector
attr source queueingTime(packetPulled)
attr title "queueing times"
attr unit s
vector 261 Network.bunkerrouter[0].eth[4].queue outgoingPacketLengths:vector ETV
attr interpolationmode none
attr recordingmode vector
attr source packetLength(packetPulled)
attr title "outgoing packet lengths"
attr unit b
vector 262 Network.bunkerrouter[0].eth[4].queue outgoingDataRate:vector ETV
attr interpolationmode linear
attr recordingmode vector
attr source throughput(packetPulled)
attr title "outgoing datarate"
attr unit bps
vector 263 Network.bunkerrouter[0].eth[4].mac packetReceivedFromUpper:vector(packetBytes) ETV
attr interpolationmode none
attr recordingmode vector(packetBytes)
attr source packetReceivedFromUpper
attr title "packet bytes from higher layer, packetBytes"
vector 264 Network.bunkerrouter[0].eth[4].queue queueLength:vector ETV
attr autoWarmupFilter false
attr interpolationmode sample-hold
attr recordingmode vector
attr source "warmup(atomic(constant0(packetPushEnded) + count(packetPushStarted) - count(packetPulled) - count(packetRemoved) - count(packetDropped)))"
attr title "queue length"
attr unit pk
vector 265 Network.bunkerrouter[0].eth[4].queue queueBitLength:vector ETV
attr autoWarmupFilter false
attr interpolationmode sample-hold
attr recordingmode vector
attr source "warmup(atomic(constant0(packetPushEnded) + sum(packetLength(packetPushStarted)) - sum(packetLength(packetPulled)) - sum(packetLength(packetRemoved)) - sum(packetLength(packetDropped))))"
attr title "queue bit length"
attr unit b
vector 266 Network.bunkerrouter[0].eth[4].mac txPk:vector(packetBytes) ETV
attr interpolationmode none
attr recordingmode vector(packetBytes)
attr source packetSentToLower
attr title "packets transmitted, packetBytes"
vector 267 Network.bunkerhost[0].eth[0].mac rxPkOk:vector(packetBytes) ETV
attr interpolationmode none
attr recordingmode vector(packetBytes)
attr source rxPkOk
attr title "packets received OK, packetBytes"
vector 268 Network.bunkerhost[0].eth[0].mac passedUpPk:vector(packetBytes) ETV
attr interpolationmode none
attr recordingmode vector(packetBytes)
attr source packetSentToUpper
attr title "packets passed to higher layer, packetBytes"
vector 269 Network.bunkerhost[0].ethernet decapPk:vector(packetBytes) ETV
attr interpolationmode none
attr recordingmode vector(packetBytes)
attr source decapPk
attr title "packets decapsulated, packetBytes"
vector 270 Network.bunkerhost[0].udp packetReceived:vector(packetBytes) ETV
attr interpolationmode none
attr recordingmode vector(packetBytes)
attr source packetReceived
attr title "packets received, packetBytes"
vector 271 Network.bunkerhost[0].app[1] endtoenddelay:vector ETV
attr interpolationmode linear
attr recordingmode vector
attr source endtoenddelay
attr title "End-to-end Delay"
vector 272 Network.bunkerhost[0].app[1] packetReceived:vector(packetBytes) ETV
attr interpolationmode none
attr recordingmode vector(packetBytes)
attr source packetReceived
attr title "packets received, packetBytes"
vector 273 Network.bunkerhost[10].eth[0].mac rxPkOk:vector(packetBytes) ETV
attr interpolationmode none
attr recordingmode vector(packetBytes)
attr source rxPkOk
attr title "packets received OK, packetBytes"
vector 274 Network.bunkerhost[10].eth[0].mac passedUpPk:vector(packetBytes) ETV
attr interpolationmode none
attr recordingmode vector(packetBytes)
attr source packetSentToUpper
attr title "packets passed to higher layer, packetBytes"
vector 275 Network.bunkerhost[10].ethernet decapPk:vector(packetBytes) ETV
attr interpolationmode none
attr recordingmode vector(packetBytes)
attr source decapPk
attr title "packets decapsulated, packetBytes"
vector 276 Network.bunkerhost[10].udp packetReceived:vector(packetBytes) ETV
attr interpolationmode none
attr recordingmode vector(packetBytes)
attr source packetReceived
attr title "packets received, packetBytes"
vector 277 Network.bunkerhost[10].app[1] endtoenddelay:vector ETV
attr interpolationmode linear
attr recordingmode vector
attr source endtoenddelay
attr title "End-to-end Delay"
vector 278 Network.bunkerhost[10].app[1] packetReceived:vector(packetBytes) ETV
attr interpolationmode none
attr recordingmode vector(packetBytes)
attr source packetReceived
attr title "packets received, packetBytes"
vector 279 Network.bunkerhost[3].eth[0].mac rxPkOk:vector(packetBytes) ETV
attr interpolationmode none
attr recordingmode vector(packetBytes)
attr source rxPkOk
attr title "packets received OK, packetBytes"
vector 280 Network.bunkerhost[3].eth[0].mac passedUpPk:vector(packetBytes) ETV
attr interpolationmode none
attr recordingmode vector(packetBytes)
attr source packetSentToUpper
attr title "packets passed to higher layer, packetBytes"
vector 281 Network.bunkerhost[3].ethernet decapPk:vector(packetBytes) ETV
attr interpolationmode none
attr recordingmode vector(packetBytes)
attr source decapPk
attr title "packets decapsulated, packetBytes"
vector 282 Network.bunkerhost[3].udp packetReceived:vector(packetBytes) ETV
attr interpolationmode none
attr recordingmode vector(packetBytes)
attr source packetReceived
attr title "packets received, packetBytes"
vector 283 Network.bunkerhost[3].app[1] endtoenddelay:vector ETV
attr interpolationmode linear
attr recordingmode vector
attr source endtoenddelay
attr title "End-to-end Delay"
vector 284 Network.bunkerhost[3].app[1] packetReceived:vector(packetBytes) ETV
attr interpolationmode none
attr recordingmode vector(packetBytes)
attr source packetReceived
attr title "packets received, packetBytes"
vector 285 Network.bunkerhost[3].app[1] chunkLength:vector ETV
attr interpolationmode none
attr recordingmode vector
attr source chunkLength
attr title "Chunk Length"
vector 286 Network.bunkerhost[10].app[1] rcvdPkLifetime:vector ETV
attr interpolationmode none
attr recordingmode vector
attr source dataAge(packetReceived)
attr title "received packet lifetime"
attr unit s
vector 287 Network.bunkerhost[0].app[0] throughput:vector ETV
attr recordingmode vector
attr source throughput(packetSent)
attr title throughput
attr unit bps
vector 288 Network.bunkerhost[0].app[0] packetSent:vector(packetBytes) ETV
attr interpolationmode none
attr recordingmode vector(packetBytes)
attr source packetSent
attr title "packets sent, packetBytes"
vector 289 Network.bunkerhost[1].app[1] throughput:vector ETV
attr recordingmode vector
attr source throughput(packetSent)
attr title throughput
attr unit bps
vector 290 Network.bunkerhost[1].app[1] packetSent:vector(packetBytes) ETV
attr interpolationmode none
attr recordingmode vector(packetBytes)
attr source packetSent
attr title "packets sent, packetBytes"
vector 291 Network.bunkerhost[2].app[1] throughput:vector ETV
attr recordingmode vector
attr source throughput(packetSent)
attr title throughput
attr unit bps
vector 292 Network.bunkerhost[2].app[1] packetSent:vector(packetBytes) ETV
attr interpolationmode none
attr recordingmode vector(packetBytes)
attr source packetSent
attr title "packets sent, packetBytes"
vector 293 Network.bunkerhost[1].udp packetSent:vector(packetBytes) ETV
attr interpolationmode none
attr recordingmode vector(packetBytes)
attr source packetSent
attr title "packets sent, packetBytes"
vector 294 Network.bunkerhost[1].ethernet encapPk:vector(packetBytes) ETV
attr interpolationmode none
attr recordingmode vector(packetBytes)
attr source encapPk
attr title "packets encapsulated, packetBytes"
vector 295 Network.bunkerhost[1].eth[0].queue incomingPacketLengths:vector ETV
attr interpolationmode none
attr recordingmode vector
attr source packetLength(packetPushStarted)
attr title "incoming packet lengths"
attr unit b
vector 296 Network.bunkerhost[1].eth[0].queue incomingDataRate:vector ETV
attr interpolationmode linear
attr recordingmode vector
attr source throughput(packetPushStarted)
attr title "incoming datarate"
attr unit bps
vector 297 Network.bunkerhost[1].eth[0].queue queueingTime:vector ETV
attr interpolationmode none
attr recordingmode vector
attr source queueingTime(packetPulled)
attr title "queueing times"
attr unit s
vector 298 Network.bunkerhost[1].eth[0].queue outgoingPacketLengths:vector ETV
attr interpolationmode none
attr recordingmode vector
attr source packetLength(packetPulled)
attr title "outgoing packet lengths"
attr unit b
vector 299 Network.bunkerhost[1].eth[0].queue outgoingDataRate:vector ETV
attr interpolationmode linear
attr recordingmode vector
attr source throughput(packetPulled)
attr title "outgoing datarate"
attr unit bps
vector 300 Network.bunkerhost[1].eth[0].mac packetReceivedFromUpper:vector(packetBytes) ETV
attr interpolationmode none
attr recordingmode vector(packetBytes)
attr source packetReceivedFromUpper
attr title "packet bytes from higher layer, packetBytes"
vector 301 Network.bunkerhost[1].eth[0].queue queueLength:vector ETV
attr autoWarmupFilter false
attr interpolationmode sample-hold
attr recordingmode vector
attr source "warmup(atomic(constant0(packetPushEnded) + count(packetPushStarted) - count(packetPulled) - count(packetRemoved) - count(packetDropped)))"
attr title "queue length"
attr unit pk
vector 302 Network.bunkerhost[1].eth[0].queue queueBitLength:vector ETV
attr autoWarmupFilter false
attr interpolationmode sample-hold
attr recordingmode vector
attr source "warmup(atomic(constant0(packetPushEnded) + sum(packetLength(packetPushStarted)) - sum(packetLength(packetPulled)) - sum(packetLength(packetRemoved)) - sum(packetLength(packetDropped))))"
attr title "queue bit length"
attr unit b
vector 303 Network.bunkerhost[1].eth[0].mac txPk:vector(packetBytes) ETV
attr interpolationmode none
attr recordingmode vector(packetBytes)
attr source packetSentToLower
attr title "packets transmitted, packetBytes"
vector 304 Network.bunkerrouter[0].eth[2].mac rxPkOk:vector(packetBytes) ETV
attr interpolationmode none
attr recordingmode vector(packetBytes)
attr source rxPkOk
attr title "packets received OK, packetBytes"
vector 305 Network.bunkerrouter[0].eth[2].mac passedUpPk:vector(packetBytes) ETV
attr interpolationmode none
attr recordingmode vector(packetBytes)
attr source packetSentToUpper
attr title "packets passed to higher layer, packetBytes"
vector 306 Network.bunkerrouter[0].eth[2].queue incomingPacketLengths:vector ETV
attr interpolationmode none
attr recordingmode vector
attr source packetLength(packetPushStarted)
attr title "incoming packet lengths"
attr unit b
vector 307 Network.bunkerrouter[0].eth[2].queue incomingDataRate:vector ETV
attr interpolationmode linear
attr recordingmode vector
attr source throughput(packetPushStarted)
attr title "incoming datarate"
attr unit bps
vector 308 Network.bunkerrouter[0].eth[2].queue queueingTime:vector ETV
attr interpolationmode none
attr recordingmode vector
attr source queueingTime(packetPulled)
attr title "queueing times"
attr unit s
vector 309 Network.bunkerrouter[0].eth[2].queue outgoingPacketLengths:vector ETV
attr interpolationmode none
attr recordingmode vector
attr source packetLength(packetPulled)
attr title "outgoing packet lengths"
attr unit b
vector 310 Network.bunkerrouter[0].eth[2].queue outgoingDataRate:vector ETV
attr interpolationmode linear
attr recordingmode vector
attr source throughput(packetPulled)
attr title "outgoing datarate"
attr unit bps
vector 311 Network.bunkerrouter[0].eth[2].mac packetReceivedFromUpper:vector(packetBytes) ETV
attr interpolationmode none
attr recordingmode vector(packetBytes)
attr source packetReceivedFromUpper
attr title "packet bytes from higher layer, packetBytes"
vector 312 Network.bunkerrouter[0].eth[2].queue queueLength:vector ETV
attr autoWarmupFilter false
attr interpolationmode sample-hold
attr recordingmode vector
attr source "warmup(atomic(constant0(packetPushEnded) + count(packetPushStarted) - count(packetPulled) - count(packetRemoved) - count(packetDropped)))"
attr title "queue length"
attr unit pk
vector 313 Network.bunkerrouter[0].eth[2].queue queueBitLength:vector ETV
attr autoWarmupFilter false
attr interpolationmode sample-hold
attr recordingmode vector
attr source "warmup(atomic(constant0(packetPushEnded) + sum(packetLength(packetPushStarted)) - sum(packetLength(packetPulled)) - sum(packetLength(packetRemoved)) - sum(packetLength(packetDropped))))"
attr title "queue bit length"
attr unit b
vector 314 Network.bunkerrouter[0].eth[2].mac txPk:vector(packetBytes) ETV
attr interpolationmode none
attr recordingmode vector(packetBytes)
attr source packetSentToLower
attr title "packets transmitted, packetBytes"
vector 315 Network.bunkerrouter[0].eth[3].queue incomingPacketLengths:vector ETV
attr interpolationmode none
attr recordingmode vector
attr source packetLength(packetPushStarted)
attr title "incoming packet lengths"
attr unit b
vector 316 Network.bunkerrouter[0].eth[3].queue incomingDataRate:vector ETV
attr interpolationmode linear
attr recordingmode vector
attr source throughput(packetPushStarted)
attr title "incoming datarate"
attr unit bps
vector 317 Network.bunkerrouter[0].eth[3].queue queueingTime:vector ETV
attr interpolationmode none
attr recordingmode vector
attr source queueingTime(packetPulled)
attr title "queueing times"
attr unit s
vector 318 Network.bunkerrouter[0].eth[3].queue outgoingPacketLengths:vector ETV
attr interpolationmode none
attr recordingmode vector
attr source packetLength(packetPulled)
attr title "outgoing packet lengths"
attr unit b
vector 319 Network.bunkerrouter[0].eth[3].queue outgoingDataRate:vector ETV
attr interpolationmode linear
attr recordingmode vector
attr source throughput(packetPulled)
attr title "outgoing datarate"
attr unit bps
vector 320 Network.bunkerrouter[0].eth[3].mac packetReceivedFromUpper:vector(packetBytes) ETV
attr interpolationmode none
attr recordingmode vector(packetBytes)
attr source packetReceivedFromUpper
attr title "packet bytes from higher layer, packetBytes"
vector 321 Network.bunkerrouter[0].eth[3].queue queueLength:vector ETV
attr autoWarmupFilter false
attr interpolationmode sample-hold
attr recordingmode vector
attr source "warmup(atomic(constant0(packetPushEnded) + count(packetPushStarted) - count(packetPulled) - count(packetRemoved) - count(packetDropped)))"
attr title "queue length"
attr unit pk
vector 322 Network.bunkerrouter[0].eth[3].queue queueBitLength:vector ETV
attr autoWarmupFilter false
attr interpolationmode sample-hold
attr recordingmode vector
attr source "warmup(atomic(constant0(packetPushEnded) + sum(packetLength(packetPushStarted)) - sum(packetLength(packetPulled)) - sum(packetLength(packetRemoved)) - sum(packetLength(packetDropped))))"
attr title "queue bit length"
attr unit b
vector 323 Network.bunkerrouter[0].eth[3].mac txPk:vector(packetBytes) ETV
attr interpolationmode none
attr recordingmode vector(packetBytes)
attr source packetSentToLower
attr title "packets transmitted, packetBytes"
vector 324 Network.bunkerhost[1].eth[0].mac rxPkOk:vector(packetBytes) ETV
attr interpolationmode none
attr recordingmode vector(packetBytes)
attr source rxPkOk
attr title "packets received OK, packetBytes"
vector 325 Network.bunkerhost[1].eth[0].mac passedUpPk:vector(packetBytes) ETV
attr interpolationmode none
attr recordingmode vector(packetBytes)
attr source packetSentToUpper
attr title "packets passed to higher layer, packetBytes"
vector 326 Network.bunkerhost[1].ethernet decapPk:vector(packetBytes) ETV
attr interpolationmode none
attr recordingmode vector(packetBytes)
attr source decapPk
attr title "packets decapsulated, packetBytes"
vector 327 Network.bunkerhost[1].udp packetReceived:vector(packetBytes) ETV
attr interpolationmode none
attr recordingmode vector(packetBytes)
attr source packetReceived
attr title "packets received, packetBytes"
vector 328 Network.bunkerhost[1].app[1] endtoenddelay:vector ETV
attr interpolationmode linear
attr recordingmode vector
[...]
267	2694478 593 277 15101 7.00063552 264.00058152 24 66 908 6689 3381441
268	2695071 593 277 15101 7.00063552 264.00058152 24 66 908 6689 3381441
269	2695664 593 278 15102 7.00063552 264.00058152 24 48 890 6257 3148413
270	2696257 593 280 15104 7.00063552 264.00058152 24 28 870 5777 2907733
271	2696850 770 281 15105 7.00063552 264.00058152 24 0.00021632 0.00068928 0.00928472 3.9753849664e-06
272	2697620 593 281 15105 7.00063552 264.00058152 24 20 862 5585 2816837
273	2698213 579 282 16384 7.00064928 290.00050256 23 66 994 8284 4623458
274	2698792 579 282 16384 7.00064928 290.00050256 23 66 994 8284 4623458
275	2699371 579 283 16385 7.00064928 290.00050256 23 48 976 7870 4332686
276	2699950 579 285 16387 7.00064928 290.00050256 23 28 956 7410 4027086
277	2700529 742 286 16388 7.00064928 290.00050256 23 0.00031776 0.00072064 0.01132584 5.9260189504e-06
278	2701271 579 286 16388 7.00064928 290.00050256 23 20 948 7226 3909998
279	2701850 642 287 16793 7.00065616 299.00064704 25 66 1036 12298 7901618
280	2702492 642 287 16793 7.00065616 299.00064704 25 66 1036 12298 7901618
281	2703134 642 288 16794 7.00065616 299.00064704 25 48 1018 11848 7466990
282	2703776 640 290 16796 7.00065616 299.00064704 25 28 998 11348 7003070
283	2704416 811 291 16797 7.00065616 299.00064704 25 0.00021424 0.00073408 0.01087648 5.4280811008e-06
284	2705227 640 291 16797 7.00065616 299.00064704 25 20 990 11148 6823102
285	2705867 349 291 15944 7.00065616 286 20 79 910 10462 6579046
286	2706216 553 323 16388 7.0012136 290.00050256 17 0.00045376 0.00072064 0.00941928 5.3201904448e-06
287	2706769 50721 324 16805 0.1 300 3000 0 1600 36800 58880000
288	2757490 371 324 15950 8 286 23 20 20 460 9200
289	2757861 50788 325 16805 0.1 300 3000 0 79920 884000 45248281600
290	2808649 414 325 14366 8 250 24 20 999 11050 7055764
291	2809063 50867 326 16805 0.1 300 3000 0 79120 732160 35287628800
292	2859930 514 326 16252 8 290 29 20 983 9152 5449092
293	2860444 784 330 16497 8 295 47 28 1007 11886 7252132
294	2861228 784 337 16503 8 295 47 48 1027 12826 7746372
295	2862012 830 340 16506 8 295 47 528 8360 109376 526293504
296	2862842 50745 340 16805 0.1 300 3000 0 83600 1093760 53339827200
297	2913587 733 340 16506 8 295 47 0 3.296e-05 3.296e-05 1.0863616e-09
298	2914320 839 340 16506 8 295 47 528 8360 109376 526293504
299	2915159 50745 340 16805 0.1 300 3000 0 83600 1093760 53339827200
300	2965904 794 340 16506 8 295 47 66 1045 13672 8223336
301	2966698 739 340 16506 8 295 48 0 1 1 1
302	2967437 741 340 16506 8 295 48 0 528 528 278784
303	2968178 1188 343 16509 8.00000592 295.00000592 47 66 1045 13672 8223336
304	2969366 1188 349 16515 8.00010592 295.00010592 47 66 1045 13672 8223336
305	2970554 1188 349 16515 8.00010592 295.00010592 47 66 1045 13672 8223336
306	2971742 343 435 15470 8.00053648 275.00015776 13 528 8328 55640 326970944
307	2972085 51132 435 16805 0.1 300 3000 0 83280 556400 32697094400
308	3023217 306 435 15470 8.00053648 275.00015776 13 0 0 0 0
309	3023523 343 435 15470 8.00053648 275.00015776 13 528 8328 55640 326970944
310	3023866 51132 435 16805 0.1 300 3000 0 83280 556400 32697094400
311	3074998 332 435 15470 8.00053648 275.00015776 13 66 1041 6955 5108921
312	3075330 306 435 15470 8.00053648 275.00015776 13 0 0 0 0
313	3075636 306 435 15470 8.00053648 275.00015776 13 0 0 0 0
314	3075942 330 436 15471 8.0005424 275.00021552 13 66 1041 6955 5108921
315	3076272 813 442 16627 8.00054336 297.0004692 31 528 8352 109704 568835008
316	3077085 50918 442 16805 0.1 300 3000 0 83520 1097040 59966611200
317	3128003 728 442 16627 8.00054336 297.0004692 31 0 0 0 0
318	3128731 813 442 16627 8.00054336 297.0004692 31 528 8352 109704 568835008
319	3129544 50918 442 16805 0.1 300 3000 0 83520 1097040 59966611200
320	3180462 784 442 16627 8.00054336 297.0004692 31 66 1044 13713 8888047
321	3181246 728 442 16627 8.00054336 297.0004692 31 0 0 0 0
322	3181974 728 442 16627 8.00054336 297.0004692 31 0 0 0 0
323	3182702 782 443 16628 8.00054928 297.0005256 31 66 1044 13713 8888047
324	3183484 330 445 15473 8.0006424 275.00031552 13 66 1041 6955 5108921
325	3183814 330 445 15473 8.0006424 275.00031552 13 66 1041 6955 5108921
326	3184144 329 446 15474 8.0006424 275.00031552 13 48 1023 6721 4862753
327	3184473 328 448 15476 8.0006424 275.00031552 13 28 1003 6461 4599113
328	3184801 419 449 15477 8.0006424 275.00031552 13 0.00022176 0.00073568 0.00574816 2.8895298048e-06
329	3185220 327 449 15477 8.0006424 275.00031552 13 20 995 6357 4496569
330	3185547 386 449 14366 8.0006424 250 22 35 999 11010 7054964
331	3185933 782 454 16630 8.00064928 297.0006256 31 66 1044 13713 8888047
332	3186715 782 454 16630 8.00064928 297.0006256 31 66 1044 13713 8888047
333	3187497 781 455 16631 8.00064928 297.0006256 31 48 1026 13155 8404423
334	3188278 780 457 16633 8.00064928 297.0006256 31 28 1006 12535 7890623
335	3189058 1001 458 16634 8.00064928 297.0006256 31 0.00021856 0.00073664 0.01312368 6.301539968e-06
336	3190059 779 458 16634 8.00064928 297.0006256 31 20 998 12287 7692047
337	3190838 813 472 16634 8.00090256 297.0006256 25 0.00021856 0.00073664 0.01121712 5.6957114624e-06
338	3191651 50661 473 16805 0.1 300 3000 0 1600 36800 58880000
339	3242312 369 473 16493 9 295 23 20 20 460 9200
340	3242681 50765 474 16805 0.1 300 3000 0 1600 33600 53760000
341	3293446 341 474 16715 9 299 21 20 20 420 8400
342	3293787 50750 530 16805 0.1 300 3000 0 76000 259200 11717542400
343	3344537 554 530 16635 10 298 34 20 950 3240 1830866
344	3345091 50712 531 16805 0.1 300 3000 0 81200 394000 18506310400
345	3395803 729 531 16494 10 295 41 20 995 4925 2767491
346	3396532 955 534 16637 10 298 59 28 958 4212 1904482
347	3397487 1052 536 16498 10 295 61 28 1003 5813 2864595
348	3398539 955 539 16641 10 298 59 48 978 5392 2096562
349	3399494 1052 540 16504 10 295 61 48 1023 7033 3121515
350	3400546 1014 541 16643 10 298 59 528 7968 51632 147826560
351	3401560 50788 541 16805 0.1 300 3000 0 79680 516320 15183091200
352	3452348 939 541 16643 10 298 59 0 2.896e-05 4.272e-05 9.333504e-10
353	3453287 1041 541 16643 10 298 59 528 7968 51632 147826560
354	3454328 50788 541 16805 0.1 300 3000 0 79680 516320 15183091200
355	3505116 982 541 16643 10 298 59 66 996 6454 2309790
356	3506098 962 541 16643 10 298 62 0 1 3 3
357	3507060 968 541 16643 10 298 62 0 528 1584 836352
358	3508028 1112 542 16507 10 295 61 528 8328 65048 217245888
359	3509140 50768 542 16805 0.1 300 3000 0 88560 650480 24804729600
360	3559908 1029 542 16507 10 295 61 0 8.72e-06 2.248e-05 1.707072e-10
361	3560937 1139 542 16507 10 295 61 528 8328 65048 217245888
362	3562076 50768 542 16805 0.1 300 3000 0 88560 650480 24804729600
363	3612844 1079 542 16507 10 295 61 66 1041 8131 3394467
364	3613923 1051 542 16507 10 295 64 0 1 3 3
365	3614974 1057 542 16507 10 295 64 0 528 1584 836352
366	3616031 1481 543 16645 10.00000592 298.00000592 59 66 996 6454 2309790
367	3617512 1538 544 16510 10.00000592 295.00000592 61 66 1041 8131 3394467
368	3619050 1481 547 16649 10.00010592 298.00010592 59 66 996 6454 2309790
369	3620531 1481 547 16649 10.00010592 298.00010592 59 66 996 6454 2309790
370	3622012 1538 548 16516 10.00010592 295.00010592 61 66 1041 8131 3394467
371	3623550 1538 548 16516 10.00010592 295.00010592 61 66 1041 8131 3394467
372	3625088 737 615 16704 10.0005296 298.0005296 29 528 6808 27048 89684288
373	3625825 50731 615 16805 0.1 300 3000 0 68080 270480 8968428800
374	3676556 677 615 16704 10.0005296 298.0005296 29 0 0 0 0
375	3677233 737 615 16704 10.0005296 298.0005296 29 528 6808 27048 89684288
376	3677970 50731 615 16805 0.1 300 3000 0 68080 270480 8968428800
377	3728701 708 615 16704 10.0005296 298.0005296 29 66 851 3381 1401317
378	3729409 677 615 16704 10.0005296 298.0005296 29 0 0 0 0
379	3730086 677 615 16704 10.0005296 298.0005296 29 0 0 0 0
380	3730763 718 616 16705 10.00053552 298.00053552 29 66 851 3381 1401317
381	3731481 1307 622 16589 10.00053648 295.00053648 50 528 7968 106640 518870400
382	3732788 50829 622 16805 0.1 300 3000 0 102880 1066400 58066880000
383	3783617 1197 622 16589 10.00053648 295.00053648 50 0 2.896e-05 2.896e-05 8.386816e-10
384	3784814 1308 622 16589 10.00053648 295.00053648 50 528 7968 106640 518870400
385	3786122 50829 622 16805 0.1 300 3000 0 102880 1066400 58066880000
386	3836951 1258 622 16589 10.00053648 295.00053648 50 66 996 13330 8107350
387	3838209 1213 622 16589 10.00053648 295.00053648 51 0 1 1 1
388	3839422 1215 622 16589 10.00053648 295.00053648 51 0 528 528 278784
389	3840637 1272 623 16590 10.0005424 295.0005424 50 66 996 13330 8107350
390	3841909 718 625 16707 10.00063552 298.00063552 29 66 851 3381 1401317
391	3842627 718 625 16707 10.00063552 298.00063552 29 66 851 3381 1401317
392	3843345 718 626 16708 10.00063552 298.00063552 29 48 833 2859 1288997
393	3844063 718 628 16710 10.00063552 298.00063552 29 28 813 2279 1186237
394	3844781 948 629 16711 10.00063552 298.00063552 29 0.00031776 0.00033744 0.00923792 2.9431093504e-06
395	3845729 718 629 16711 10.00063552 298.00063552 29 20 805 2047 1151629
396	3846447 1272 630 16592 10.0006424 295.0006424 50 66 996 13330 8107350
397	3847719 1272 630 16592 10.0006424 295.0006424 50 66 996 13330 8107350
398	3848991 1272 631 16593 10.0006424 295.0006424 50 48 978 12430 7643670
399	3850263 1272 633 16595 10.0006424 295.0006424 50 28 958 11430 7166470
400	3851535 1649 634 16596 10.0006424 295.0006424 50 0.00021696 0.00072096 0.01881856 8.0053796864e-06
401	3853184 1272 634 16596 10.0006424 295.0006424 50 20 950 11030 6986790
402	3854456 50807 635 16805 0.1 300 3000 0 78880 593280 32929280000
403	3905263 256 635 13735 11 238 15 20 986 7416 5108360
404	3905519 50638 636 16805 0.1 300 3000 0 77440 497600 28705036800
405	3956157 253 636 16602 11 297 14 20 968 6220 4466362
406	3956410 50785 637 16799 0.1 300 3000 0 1600 33600 53760000
407	4007195 358 637 16799 11 300 22 20 20 440 8800
408	4007553 597 639 16142 11 289 36 28 994 8124 5244440
409	4008150 559 641 16717 11 299 33 28 976 6864 4581674
410	4008709 394 642 16801 11 300 24 28 507 1361 330941
411	4009103 598 646 16148 11 289 36 48 1014 8844 5583800
412	4009701 559 647 16723 11 299 33 48 996 7524 4869434
413	4010260 394 648 16803 11 300 24 48 527 1841 394981
414	4010654 633 649 16151 11 289 36 528 8256 75936 378486272
415	4011287 50720 649 16805 0.1 300 3000 0 82640 759360 38665548800
416	4062007 548 649 16151 11 289 36 0 0 0 0
417	4062555 633 649 16151 11 289 36 528 8256 75936 378486272
418	4063188 50720 649 16805 0.1 300 3000 0 82640 759360 38665548800
419	4113908 598 649 16151 11 289 36 66 1032 9492 5913848
420	4114506 548 649 16151 11 289 36 0 0 0 0
421	4115054 548 649 16151 11 289 36 0 0 0 0
422	4115602 592 650 16726 11 299 33 528 8112 64944 329663360
423	4116194 50666 650 16805 0.1 300 3000 0 81120 649440 33441113600
424	4166860 515 650 16726 11 299 33 0 0 0 0
425	4167375 592 650 16726 11 299 33 528 8112 64944 329663360
426	4167967 50666 650 16805 0.1 300 3000 0 81120 649440 33441113600
427	4218633 561 650 16726 11 299 33 66 1014 8118 5150990
428	4219194 515 650 16726 11 299 33 0 0 0 0
429	4219709 515 650 16726 11 299 33 0 0 0 0
430	4220224 418 651 16804 11 300 24 528 4360 18184 30018112
431	4220642 50793 651 16804 0.1 300 3000 0 43600 176560 2973932800
432	4271435 368 651 16804 11 300 24 0 0 0 0
433	4271803 418 651 16804 11 300 24 528 4360 18184 30018112
434	4272221 50793 651 16804 0.1 300 3000 0 43600 176560 2973932800
435	4323014 394 651 16804 11 300 24 66 545 2273 469033
436	4323408 368 651 16804 11 300 24 0 0 0 0
437	4323776 368 651 16804 11 300 24 0 0 0 0
438	4324144 909 652 16153 11.00000592 289.00000592 36 66 1032 9492 5913848
439	4325053 836 653 16728 11.00000592 299.00000592 33 66 1014 8118 5150990
440	4325889 584 654 16444 11.00000592 294.00000592 23 66 545 2207 464677
441	4326473 909 658 16159 11.00010592 289.00010592 36 66 1032 9492 5913848
442	4327382 909 658 16159 11.00010592 289.00010592 36 66 1032 9492 5913848
443	4328291 837 659 16734 11.00010592 299.00010592 33 66 1014 8118 5150990
444	4329128 837 659 16734 11.00010592 299.00010592 33 66 1014 8118 5150990
445	4329965 584 660 16448 11.00010592 294.00010592 23 66 545 2207 464677
446	4330549 584 660 16448 11.00010592 294.00010592 23 66 545 2207 464677
447	4331133 805 745 16485 11.0005296 294.00046824 30 528 8344 142800 874178816
448	4331938 50785 745 16805 0.1 300 3000 0 130320 1428000 95400089600
449	4382723 727 745 16485 11.0005296 294.00046824 30 0 1.888e-05 1.888e-05 3.564544e-10
450	4383450 805 745 16485 11.0005296 294.00046824 30 528 8344 142800 874178816
451	4384255 50785 745 16805 0.1 300 3000 0 130320 1428000 95400089600
452	4435040 781 745 16485 11.0005296 294.00046824 30 66 1043 17850 13659044
453	4435821 744 745 16485 11.0005296 294.00046824 31 0 1 1 1
454	4436565 747 745 16485 11.0005296 294.00046824 31 0 8112 8112 65804544
455	4437312 780 746 16486 11.00053552 294.00052432 30 66 1043 17850 13659044
456	4438092 392 752 15189 11.00054336 266.00050192 15 528 8360 64448 412469376
457	4438484 50939 752 16805 0.1 300 3000 0 83600 644480 41246937600
458	4489423 350 752 15189 11.00054336 266.00050192 15 0 0 0 0
459	4489773 392 752 15189 11.00054336 266.00050192 15 528 8360 64448 412469376
460	4490165 50939 752 16805 0.1 300 3000 0 83600 644480 41246937600
461	4541104 379 752 15189 11.00054336 266.00050192 15 66 1045 8056 6444834
462	4541483 350 752 15189 11.00054336 266.00050192 15 0 0 0 0
463	4541833 350 752 15189 11.00054336 266.00050192 15 0 0 0 0
464	4542183 381 753 15195 11.00054928 266.00056272 15 66 1045 8056 6444834
465	4542564 780 755 16488 11.00063552 294.00062432 30 66 1043 17850 13659044
466	4543344 780 755 16488 11.00063552 294.00062432 30 66 1043 17850 13659044
467	4544124 778 756 16489 11.00063552 294.00062432 30 48 1025 17310 13026164
468	4544902 775 758 16491 11.00063552 294.00062432 30 28 1005 16710 12345764
469	4545677 982 759 16492 11.00063552 294.00062432 30 0.0002384 0.00073632 0.01460272 7.9855651584e-06
470	4546659 774 759 16492 11.00063552 294.00062432 30 20 997 16470 12080324
471	4547433 381 760 15197 11.00064928 266.00066272 15 66 1045 8056 6444834
472	4547814 381 760 15197 11.00064928 266.00066272 15 66 1045 8056 6444834
473	4548195 381 761 15198 11.00064928 266.00066272 15 48 1027 7786 6159678
474	4548576 379 763 15200 11.00064928 266.00066272 15 28 1007 7486 5854238
475	4548955 481 764 15201 11.00064928 266.00066272 15 0.000296 0.00073696 0.00695776 3.557989632e-06
476	4549436 378 764 15201 11.00064928 266.00066272 15 20 999 7366 5735422
477	4549814 377 841 16712 12.00063552 299 20 186 998 11436 7727654
478	4550191 781 873 16797 12.00124128 299.00064704 24 0.00021424 0.00073408 0.01055872 5.3271096832e-06
479	4550972 50639 953 16805 0.1 300 3000 0 1600 30400 48640000
480	4601611 306 953 16714 14 299 19 20 20 380 7600
481	4601917 227 1144 13735 17.0006424 238 13 180 986 7376 5107560
482	4602144 386 1176 15201 17.0009984 266.00066272 12 0.000296 0.00073696 0.00600448 3.2550753792e-06
483	4602530 426 1305 16252 19 290 23 48 983 9032 5446692
484	4602956 358 1355 15477 19.00034816 275.00031552 11 0.00022176 0.00073568 0.00511264 2.6875869696e-06
485	4603314 50775 1376 16805 0.1 300 3000 0 1600 33600 53760000
486	4654089 341 1376 16139 20 289 21 20 20 420 8400
487	4654430 51022 1508 16805 0.1 300 3000 0 1600 32000 51200000
488	4705452 322 1508 15205 22 267 20 20 20 400 8000
489	4705774 209 1628 16602 22.00063552 297 11 119 968 6160 4465162
490	4705983 298 1751 16393 23.00055808 290.00050432 9 0.00032912 0.00070848 0.00484944 2.717196928e-06
491	4706281 50787 1806 16805 0.1 300 3000 0 1600 40000 64000000
492	4757068 401 1806 16402 25 291 25 20 20 500 10000
493	4757469 920 1991 16492 27.00136288 294.00062432 28 0.0002384 0.00073632 0.0139672 7.7836223232e-06
494	4758389 50931 1997 16805 0.1 300 3000 0 1600 36800 58880000
495	4809320 372 1997 16495 28 295 23 20 20 460 9200
496	4809692 563 2002 16499 28 295 34 28 956 5266 2701504
497	4810255 563 2012 16505 28 295 34 48 976 5946 2925744
498	4810818 597 2017 16508 28 295 34 528 7952 52464 201652224
499	4811415 50942 2017 16805 0.1 300 3000 0 79520 524640 20411059200
500	4862357 534 2017 16508 28 295 34 0 6.88e-06 6.88e-06 4.73344e-11
501	4862891 606 2017 16508 28 295 34 528 7952 52464 201652224
502	4863497 50942 2017 16805 0.1 300 3000 0 79520 524640 20411059200
503	4914439 572 2017 16508 28 295 34 66 994 6558 3150816
504	4915011 543 2017 16508 28 295 35 0 1 1 1
505	4915554 546 2017 16508 28 295 35 0 2328 2328 5419584
506	4916100 865 2020 16511 28.00000592 295.00000592 34 66 994 6558 3150816
507	4916965 865 2030 16517 28.00010592 295.00010592 34 66 994 6558 3150816
508	4917830 865 2030 16517 28.00010592 295.00010592 34 66 994 6558 3150816
509	4918695 330 2133 16431 28.0006424 294 18 35 949 10196 7058420
510	4919025 283 2702 16250 34.00063552 290 15 33 997 8271 6085675
511	4919308 493 2738 15105 34.0008872 264.00058152 15 0.00021632 0.00068928 0.00640728 3.055147296e-06
512	4919801 249 3149 15273 38.00063552 271 11 21 995 4325 2755491
513	4920050 214 3384 16383 42.00118536 290.00045384 8 648 8264 31880 180432192
514	4920264 50753 3384 16805 0.1 300 3000 0 82640 318800 18043219200
515	4971017 191 3384 16383 42.00118536 290.00045384 8 0 0 0 0
516	4971208 214 3384 16383 42.00118536 290.00045384 8 648 8264 31880 180432192
517	4971422 50753 3384 16805 0.1 300 3000 0 82640 318800 18043219200
518	5022175 207 3384 16383 42.00118536 290.00045384 8 81 1033 3985 2819253
519	5022382 191 3384 16383 42.00118536 290.00045384 8 0 0 0 0
520	5022573 191 3384 16383 42.00118536 290.00045384 8 0 0 0 0
521	5022764 207 3385 16394 42.00126864 290.00050512 8 81 1033 3985 2819253
522	5022971 207 3387 16396 42.00136864 290.00060512 8 81 1033 3985 2819253
523	5023178 207 3387 16396 42.00136864 290.00060512 8 81 1033 3985 2819253
524	5023385 207 3388 16397 42.00136864 290.00060512 8 63 1015 3841 2678385
525	5023592 206 3390 16399 42.00136864 290.00060512 8 43 995 3681 2527945
526	5023798 261 3391 16400 42.00136864 290.00060512 8 0.00042848 0.00073312 0.00449568 2.61181696e-06
527	5024059 206 3391 16400 42.00136864 290.00060512 8 35 987 3617 2469561
528	5024265 261 3391 16400 42.00136864 290.00060512 8 0.00042848 0.00073312 0.00449568 2.61181696e-06
529	5024526 191 5014 16251 68 290 11 114 948 4534 2610224
530	5024717 50875 5014 16805 0.1 300 3000 0 75840 362720 16705433600
531	5075592 191 5014 16251 68 290 11 114 948 4534 2610224
532	5075783 665 5880 15575 80.00071264 279.00028848 20 0.00021696 0.00072096 0.0092568 4.9569938176e-06
533	5076448 67 9355 12643 144.00097296 215.00032096 2 0.00032096 0.00033744 0.0006584 2.168810752e-07
534	5076515 124 9518 14566 149 255 7 52 950 2700 1820066
535	5076639 56 14689 15313 255.00076008 271.00011376 2 1312 2392 3704 7443008
536	5076695 52310 14689 16805 0.1 300 3000 0 23920 37040 744300800
537	5129005 50 14689 15313 255.00076008 271.00011376 2 0 0 0 0
538	5129055 56 14689 15313 255.00076008 271.00011376 2 1312 2392 3704 7443008
539	5129111 52310 14689 16805 0.1 300 3000 0 23920 37040 744300800
540	5181421 54 14689 15313 255.00076008 271.00011376 2 164 299 463 116297
541	5181475 50 14689 15313 255.00076008 271.00011376 2 0 0 0 0
542	5181525 50 14689 15313 255.00076008 271.00011376 2 0 0 0 0
543	5181575 54 14690 15314 255.00078464 271.00012752 2 164 299 463 116297
544	5181629 54 14692 15330 255.00088464 271.00022752 2 164 299 463 116297
545	5181683 54 14692 15330 255.00088464 271.00022752 2 164 299 463 116297
546	5181737 54 14693 15331 255.00088464 271.00022752 2 146 281 427 100277
547	5181791 54 14695 15333 255.00088464 271.00022752 2 126 261 387 83997
548	5181845 68 14696 15334 255.00088464 271.00022752 2 0.00022752 0.00024912 0.00047664 1.138261248e-07
549	5181913 54 14696 15334 255.00088464 271.00022752 2 118 253 371 77933
550	5181967 68 14696 15334 255.00088464 271.00022752 2 0.00022752 0.00024912 0.00047664 1.138261248e-07
551	5182035 36 15020 15555 263 279 2 230 499 729 301901
552	5182071 52310 15020 16805 0.1 300 3000 0 39920 58320 1932166400
553	5234381 36 15020 15555 263 279 2 230 499 729 301901

