file 5281523 1670981542                                         
version 3
run General-0-20221214-02:32:22-46530
attr configname General
attr datetime 20221214-02:32:22
attr datetimef 20221214-023222
attr experiment General
attr inifile ./simulations/omnetpp.ini
attr iterationvars "$bnum=int(uniform(2, 5)), $hnum=int(uniform(2, 5)), $xnum=int(uniform(1, 2))"
attr iterationvarsd bnum=int(uniform(2,_5))/hnum=int(uniform(2,_5))/xnum=int(uniform(1,_2))
attr iterationvarsf bnum=int(uniform(2,_5)),hnum=int(uniform(2,_5)),xnum=int(uniform(1,_2))-
attr measurement "$bnum=int(uniform(2, 5)), $hnum=int(uniform(2, 5)), $xnum=int(uniform(1, 2))"
attr network Network
attr processid 46530
attr repetition 0
attr replication #0
attr resultdir results
attr runnumber 0
attr seedset 0
itervar bnum "int(uniform(2, 5))"
itervar hnum "int(uniform(2, 5))"
itervar xnum "int(uniform(1, 2))"
config image-path ../../omnetpp-6.0.1/samples/inet4.4/images
config network Network
config sim-time-limit 300s
config output-scalar-file results/scalars.sca
config output-vector-file results/vectors.vec
config seed-0-mt 1
config *.configurator.dumpAddresses true
config *.configurator.dumpTopology true
config *.configurator.dumpLinks true
config *.configurator.dumpRoutes true
config *.configurator.config "xmldoc(\"config.xml\")"
config *.visualizer.interfaceTableVisualizer.displayInterfaceTables true
config *.visualizer.interfaceTableVisualizer.nodeFilter "\"not (*router*)\""
config *.cableBandwidth 10Mbps
config *.cableLength 20km
config *.cableBandwidth.param-record-as-scalar true
config *.cableLength.param-record-as-scalar true
config *.*.ipv4.arp.typename GlobalArp
config *.*.ipv4.routingTable.netmaskRoutes "\"\""
config *.*router.eth[*].queue.typename DropTailQueue
config *.*router.eth[*].queue.packetCapacity 10
config *.server.numApps 1
config *.server.app[0].typename ServerApp
config *.server.app[0].heartbeatThreshold 15
config *.bunker_number "int(uniform(2, 5))"
config *.host_number "int(uniform(2, 5))"
config *.nonExist_host_number "int(uniform(1, 2))"
config *.bunker_number.param-record-as-scalar true
config *.host_number.param-record-as-scalar true
config *.nonExist_host_number.param-record-as-scalar true
config *.bunkerhost[*].numApps 2
config *.bunkerhost[*].app[*].destAddress "\"server\""
config *.bunkerhost[*].app[0].sendInterval "int(uniform(5s, 10s))"
config *.bunkerhost[*].app[1].sendInterval "int(uniform(6s, 12s))"
config *.bunkerhost[*].app[0].typename HeartBeatApp
config *.bunkerhost[*].app[1].typename ClientApp
config *.bunkerhost[*].app[1].bunker_number "int(uniform(2, 5))"
config *.bunkerhost[*].app[1].host_number "int(uniform(2, 5))"
config *.bunkerhost[*].app[1].nonExist_host_number "int(uniform(1, 2))"

vector 0 Network.server.udp passedUpPk:vector(count) ETV
attr interpolationmode none
attr recordingmode vector(count)
attr source packetSentToUpper
attr title "packets passed up, count"
vector 1 Network.server.udp droppedPkWrongPort:vector(count) ETV
attr interpolationmode none
attr recordingmode vector(count)
attr source packetDropReasonIsNoPortFound(packetDropped)
attr title "packets dropped (wrong port), count"
vector 2 Network.server.udp droppedPkBadChecksum:vector(count) ETV
attr interpolationmode none
attr recordingmode vector(count)
attr source packetDropReasonIsIncorrectlyReceived(packetDropped)
attr title "packets dropped (checksum error), count"
vector 3 Network.bunkerhost[0].udp passedUpPk:vector(count) ETV
attr interpolationmode none
attr recordingmode vector(count)
attr source packetSentToUpper
attr title "packets passed up, count"
vector 4 Network.bunkerhost[0].udp droppedPkWrongPort:vector(count) ETV
attr interpolationmode none
attr recordingmode vector(count)
attr source packetDropReasonIsNoPortFound(packetDropped)
attr title "packets dropped (wrong port), count"
vector 5 Network.bunkerhost[0].udp droppedPkBadChecksum:vector(count) ETV
attr interpolationmode none
attr recordingmode vector(count)
attr source packetDropReasonIsIncorrectlyReceived(packetDropped)
attr title "packets dropped (checksum error), count"
vector 6 Network.bunkerhost[1].udp passedUpPk:vector(count) ETV
attr interpolationmode none
attr recordingmode vector(count)
attr source packetSentToUpper
attr title "packets passed up, count"
vector 7 Network.bunkerhost[1].udp droppedPkWrongPort:vector(count) ETV
attr interpolationmode none
attr recordingmode vector(count)
attr source packetDropReasonIsNoPortFound(packetDropped)
attr title "packets dropped (wrong port), count"
vector 8 Network.bunkerhost[1].udp droppedPkBadChecksum:vector(count) ETV
attr interpolationmode none
attr recordingmode vector(count)
attr source packetDropReasonIsIncorrectlyReceived(packetDropped)
attr title "packets dropped (checksum error), count"
vector 9 Network.bunkerhost[2].udp passedUpPk:vector(count) ETV
attr interpolationmode none
attr recordingmode vector(count)
attr source packetSentToUpper
attr title "packets passed up, count"
vector 10 Network.bunkerhost[2].udp droppedPkWrongPort:vector(count) ETV
attr interpolationmode none
attr recordingmode vector(count)
attr source packetDropReasonIsNoPortFound(packetDropped)
attr title "packets dropped (wrong port), count"
vector 11 Network.bunkerhost[2].udp droppedPkBadChecksum:vector(count) ETV
attr interpolationmode none
attr recordingmode vector(count)
attr source packetDropReasonIsIncorrectlyReceived(packetDropped)
attr title "packets dropped (checksum error), count"
vector 12 Network.bunkerhost[3].udp passedUpPk:vector(count) ETV
attr interpolationmode none
attr recordingmode vector(count)
attr source packetSentToUpper
attr title "packets passed up, count"
vector 13 Network.bunkerhost[3].udp droppedPkWrongPort:vector(count) ETV
attr interpolationmode none
attr recordingmode vector(count)
attr source packetDropReasonIsNoPortFound(packetDropped)
attr title "packets dropped (wrong port), count"
vector 14 Network.bunkerhost[3].udp droppedPkBadChecksum:vector(count) ETV
attr interpolationmode none
attr recordingmode vector(count)
attr source packetDropReasonIsIncorrectlyReceived(packetDropped)
attr title "packets dropped (checksum error), count"
vector 15 Network.bunkerhost[4].udp passedUpPk:vector(count) ETV
attr interpolationmode none
attr recordingmode vector(count)
attr source packetSentToUpper
attr title "packets passed up, count"
vector 16 Network.bunkerhost[4].udp droppedPkWrongPort:vector(count) ETV
attr interpolationmode none
attr recordingmode vector(count)
attr source packetDropReasonIsNoPortFound(packetDropped)
attr title "packets dropped (wrong port), count"
vector 17 Network.bunkerhost[4].udp droppedPkBadChecksum:vector(count) ETV
attr interpolationmode none
attr recordingmode vector(count)
attr source packetDropReasonIsIncorrectlyReceived(packetDropped)
attr title "packets dropped (checksum error), count"
vector 18 Network.bunkerhost[5].udp passedUpPk:vector(count) ETV
attr interpolationmode none
attr recordingmode vector(count)
attr source packetSentToUpper
attr title "packets passed up, count"
vector 19 Network.bunkerhost[5].udp droppedPkWrongPort:vector(count) ETV
attr interpolationmode none
attr recordingmode vector(count)
attr source packetDropReasonIsNoPortFound(packetDropped)
attr title "packets dropped (wrong port), count"
vector 20 Network.bunkerhost[5].udp droppedPkBadChecksum:vector(count) ETV
attr interpolationmode none
attr recordingmode vector(count)
attr source packetDropReasonIsIncorrectlyReceived(packetDropped)
attr title "packets dropped (checksum error), count"
vector 21 Network.bunkerhost[6].udp passedUpPk:vector(count) ETV
attr interpolationmode none
attr recordingmode vector(count)
attr source packetSentToUpper
attr title "packets passed up, count"
vector 22 Network.bunkerhost[6].udp droppedPkWrongPort:vector(count) ETV
attr interpolationmode none
attr recordingmode vector(count)
attr source packetDropReasonIsNoPortFound(packetDropped)
attr title "packets dropped (wrong port), count"
vector 23 Network.bunkerhost[6].udp droppedPkBadChecksum:vector(count) ETV
attr interpolationmode none
attr recordingmode vector(count)
attr source packetDropReasonIsIncorrectlyReceived(packetDropped)
attr title "packets dropped (checksum error), count"
vector 24 Network.bunkerhost[7].udp passedUpPk:vector(count) ETV
attr interpolationmode none
attr recordingmode vector(count)
attr source packetSentToUpper
attr title "packets passed up, count"
vector 25 Network.bunkerhost[7].udp droppedPkWrongPort:vector(count) ETV
attr interpolationmode none
attr recordingmode vector(count)
attr source packetDropReasonIsNoPortFound(packetDropped)
attr title "packets dropped (wrong port), count"
vector 26 Network.bunkerhost[7].udp droppedPkBadChecksum:vector(count) ETV
attr interpolationmode none
attr recordingmode vector(count)
attr source packetDropReasonIsIncorrectlyReceived(packetDropped)
attr title "packets dropped (checksum error), count"
vector 27 Network.bunkerhost[8].udp passedUpPk:vector(count) ETV
attr interpolationmode none
attr recordingmode vector(count)
attr source packetSentToUpper
attr title "packets passed up, count"
vector 28 Network.bunkerhost[8].udp droppedPkWrongPort:vector(count) ETV
attr interpolationmode none
attr recordingmode vector(count)
attr source packetDropReasonIsNoPortFound(packetDropped)
attr title "packets dropped (wrong port), count"
vector 29 Network.bunkerhost[8].udp droppedPkBadChecksum:vector(count) ETV
attr interpolationmode none
attr recordingmode vector(count)
attr source packetDropReasonIsIncorrectlyReceived(packetDropped)
attr title "packets dropped (checksum error), count"
vector 30 Network.bunkerhost[9].udp passedUpPk:vector(count) ETV
attr interpolationmode none
attr recordingmode vector(count)
attr source packetSentToUpper
attr title "packets passed up, count"
vector 31 Network.bunkerhost[9].udp droppedPkWrongPort:vector(count) ETV
attr interpolationmode none
attr recordingmode vector(count)
attr source packetDropReasonIsNoPortFound(packetDropped)
attr title "packets dropped (wrong port), count"
vector 32 Network.bunkerhost[9].udp droppedPkBadChecksum:vector(count) ETV
attr interpolationmode none
attr recordingmode vector(count)
attr source packetDropReasonIsIncorrectlyReceived(packetDropped)
attr title "packets dropped (checksum error), count"
vector 33 Network.bunkerhost[10].udp passedUpPk:vector(count) ETV
attr interpolationmode none
attr recordingmode vector(count)
attr source packetSentToUpper
attr title "packets passed up, count"
vector 34 Network.bunkerhost[10].udp droppedPkWrongPort:vector(count) ETV
attr interpolationmode none
attr recordingmode vector(count)
attr source packetDropReasonIsNoPortFound(packetDropped)
attr title "packets dropped (wrong port), count"
vector 35 Network.bunkerhost[10].udp droppedPkBadChecksum:vector(count) ETV
attr interpolationmode none
attr recordingmode vector(count)
attr source packetDropReasonIsIncorrectlyReceived(packetDropped)
attr title "packets dropped (checksum error), count"
vector 36 Network.bunkerhost[11].udp passedUpPk:vector(count) ETV
attr interpolationmode none
attr recordingmode vector(count)
attr source packetSentToUpper
attr title "packets passed up, count"
vector 37 Network.bunkerhost[11].udp droppedPkWrongPort:vector(count) ETV
attr interpolationmode none
attr recordingmode vector(count)
attr source packetDropReasonIsNoPortFound(packetDropped)
attr title "packets dropped (wrong port), count"
vector 38 Network.bunkerhost[11].udp droppedPkBadChecksum:vector(count) ETV
attr interpolationmode none
attr recordingmode vector(count)
attr source packetDropReasonIsIncorrectlyReceived(packetDropped)
attr title "packets dropped (checksum error), count"
vector 39 Network.bunkerhost[2].app[0] throughput:vector ETV
attr recordingmode vector
attr source throughput(packetSent)
attr title throughput
attr unit bps
vector 40 Network.bunkerhost[2].app[0] packetSent:vector(packetBytes) ETV
attr interpolationmode none
attr recordingmode vector(packetBytes)
attr source packetSent
attr title "packets sent, packetBytes"
vector 41 Network.bunkerhost[10].app[0] throughput:vector ETV
attr recordingmode vector
attr source throughput(packetSent)
attr title throughput
attr unit bps
vector 42 Network.bunkerhost[10].app[0] packetSent:vector(packetBytes) ETV
attr interpolationmode none
attr recordingmode vector(packetBytes)
attr source packetSent
attr title "packets sent, packetBytes"
vector 43 Network.bunkerhost[2].udp packetSent:vector(packetBytes) ETV
attr interpolationmode none
attr recordingmode vector(packetBytes)
attr source packetSent
attr title "packets sent, packetBytes"
vector 44 Network.bunkerhost[10].udp packetSent:vector(packetBytes) ETV
attr interpolationmode none
attr recordingmode vector(packetBytes)
attr source packetSent
attr title "packets sent, packetBytes"
vector 45 Network.bunkerhost[2].ethernet encapPk:vector(packetBytes) ETV
attr interpolationmode none
attr recordingmode vector(packetBytes)
attr source encapPk
attr title "packets encapsulated, packetBytes"
vector 46 Network.bunkerhost[10].ethernet encapPk:vector(packetBytes) ETV
attr interpolationmode none
attr recordingmode vector(packetBytes)
attr source encapPk
attr title "packets encapsulated, packetBytes"
vector 47 Network.bunkerhost[2].eth[0].queue incomingPacketLengths:vector ETV
attr interpolationmode none
attr recordingmode vector
attr source packetLength(packetPushStarted)
attr title "incoming packet lengths"
attr unit b
vector 48 Network.bunkerhost[2].eth[0].queue incomingDataRate:vector ETV
attr interpolationmode linear
attr recordingmode vector
attr source throughput(packetPushStarted)
attr title "incoming datarate"
attr unit bps
vector 49 Network.bunkerhost[2].eth[0].queue queueingTime:vector ETV
attr interpolationmode none
attr recordingmode vector
attr source queueingTime(packetPulled)
attr title "queueing times"
attr unit s
vector 50 Network.bunkerhost[2].eth[0].queue outgoingPacketLengths:vector ETV
attr interpolationmode none
attr recordingmode vector
attr source packetLength(packetPulled)
attr title "outgoing packet lengths"
attr unit b
vector 51 Network.bunkerhost[2].eth[0].queue outgoingDataRate:vector ETV
attr interpolationmode linear
attr recordingmode vector
attr source throughput(packetPulled)
attr title "outgoing datarate"
attr unit bps
vector 52 Network.bunkerhost[2].eth[0].mac packetReceivedFromUpper:vector(packetBytes) ETV
attr interpolationmode none
attr recordingmode vector(packetBytes)
attr source packetReceivedFromUpper
attr title "packet bytes from higher layer, packetBytes"
vector 53 Network.bunkerhost[2].eth[0].queue queueLength:vector ETV
attr autoWarmupFilter false
attr interpolationmode sample-hold
attr recordingmode vector
attr source "warmup(atomic(constant0(packetPushEnded) + count(packetPushStarted) - count(packetPulled) - count(packetRemoved) - count(packetDropped)))"
attr title "queue length"
attr unit pk
vector 54 Network.bunkerhost[2].eth[0].queue queueBitLength:vector ETV
attr autoWarmupFilter false
attr interpolationmode sample-hold
attr recordingmode vector
attr source "warmup(atomic(constant0(packetPushEnded) + sum(packetLength(packetPushStarted)) - sum(packetLength(packetPulled)) - sum(packetLength(packetRemoved)) - sum(packetLength(packetDropped))))"
attr title "queue bit length"
attr unit b
vector 55 Network.bunkerhost[10].eth[0].queue incomingPacketLengths:vector ETV
attr interpolationmode none
attr recordingmode vector
attr source packetLength(packetPushStarted)
attr title "incoming packet lengths"
attr unit b
vector 56 Network.bunkerhost[10].eth[0].queue incomingDataRate:vector ETV
attr interpolationmode linear
attr recordingmode vector
attr source throughput(packetPushStarted)
attr title "incoming datarate"
attr unit bps
vector 57 Network.bunkerhost[10].eth[0].queue queueingTime:vector ETV
attr interpolationmode none
attr recordingmode vector
attr source queueingTime(packetPulled)
attr title "queueing times"
attr unit s
vector 58 Network.bunkerhost[10].eth[0].queue outgoingPacketLengths:vector ETV
attr interpolationmode none
attr recordingmode vector
attr source packetLength(packetPulled)
attr title "outgoing packet lengths"
attr unit b
vector 59 Network.bunkerhost[10].eth[0].queue outgoingDataRate:vector ETV
attr interpolationmode linear
attr recordingmode vector
attr source throughput(packetPulled)
attr title "outgoing datarate"
attr unit bps
vector 60 Network.bunkerhost[10].eth[0].mac packetReceivedFromUpper:vector(packetBytes) ETV
attr interpolationmode none
attr recordingmode vector(packetBytes)
attr source packetReceivedFromUpper
attr title "packet bytes from higher layer, packetBytes"
vector 61 Network.bunkerhost[10].eth[0].queue queueLength:vector ETV
attr autoWarmupFilter false
attr interpolationmode sample-hold
attr recordingmode vector
attr source "warmup(atomic(constant0(packetPushEnded) + count(packetPushStarted) - count(packetPulled) - count(packetRemoved) - count(packetDropped)))"
attr title "queue length"
attr unit pk
vector 62 Network.bunkerhost[10].eth[0].queue queueBitLength:vector ETV
attr autoWarmupFilter false
attr interpolationmode sample-hold
attr recordingmode vector
attr source "warmup(atomic(constant0(packetPushEnded) + sum(packetLength(packetPushStarted)) - sum(packetLength(packetPulled)) - sum(packetLength(packetRemoved)) - sum(packetLength(packetDropped))))"
attr title "queue bit length"
attr unit b
vector 63 Network.bunkerhost[2].eth[0].mac txPk:vector(packetBytes) ETV
attr interpolationmode none
attr recordingmode vector(packetBytes)
attr source packetSentToLower
attr title "packets transmitted, packetBytes"
vector 64 Network.bunkerhost[10].eth[0].mac txPk:vector(packetBytes) ETV
attr interpolationmode none
attr recordingmode vector(packetBytes)
attr source packetSentToLower
attr title "packets transmitted, packetBytes"
vector 65 Network.bunkerrouter[0].eth[3].mac rxPkOk:vector(packetBytes) ETV
attr interpolationmode none
attr recordingmode vector(packetBytes)
attr source rxPkOk
attr title "packets received OK, packetBytes"
vector 66 Network.bunkerrouter[0].eth[3].mac passedUpPk:vector(packetBytes) ETV
attr interpolationmode none
attr recordingmode vector(packetBytes)
attr source packetSentToUpper
attr title "packets passed to higher layer, packetBytes"
vector 67 Network.bunkerrouter[2].eth[3].mac rxPkOk:vector(packetBytes) ETV
attr interpolationmode none
attr recordingmode vector(packetBytes)
attr source rxPkOk
attr title "packets received OK, packetBytes"
vector 68 Network.bunkerrouter[2].eth[3].mac passedUpPk:vector(packetBytes) ETV
attr interpolationmode none
attr recordingmode vector(packetBytes)
attr source packetSentToUpper
attr title "packets passed to higher layer, packetBytes"
vector 69 Network.bunkerrouter[0].ethernet decapPk:vector(packetBytes) ETV
attr interpolationmode none
attr recordingmode vector(packetBytes)
attr source decapPk
attr title "packets decapsulated, packetBytes"
vector 70 Network.bunkerrouter[2].ethernet decapPk:vector(packetBytes) ETV
attr interpolationmode none
attr recordingmode vector(packetBytes)
attr source decapPk
attr title "packets decapsulated, packetBytes"
vector 71 Network.bunkerrouter[0].ethernet encapPk:vector(packetBytes) ETV
attr interpolationmode none
attr recordingmode vector(packetBytes)
attr source encapPk
attr title "packets encapsulated, packetBytes"
vector 72 Network.bunkerrouter[2].ethernet encapPk:vector(packetBytes) ETV
attr interpolationmode none
attr recordingmode vector(packetBytes)
attr source encapPk
attr title "packets encapsulated, packetBytes"
vector 73 Network.bunkerrouter[0].eth[0].queue incomingPacketLengths:vector ETV
attr interpolationmode none
attr recordingmode vector
attr source packetLength(packetPushStarted)
attr title "incoming packet lengths"
attr unit b
vector 74 Network.bunkerrouter[0].eth[0].queue incomingDataRate:vector ETV
attr interpolationmode linear
attr recordingmode vector
attr source throughput(packetPushStarted)
attr title "incoming datarate"
attr unit bps
vector 75 Network.bunkerrouter[0].eth[0].queue queueingTime:vector ETV
attr interpolationmode none
attr recordingmode vector
attr source queueingTime(packetPulled)
attr title "queueing times"
attr unit s
vector 76 Network.bunkerrouter[0].eth[0].queue outgoingPacketLengths:vector ETV
attr interpolationmode none
attr recordingmode vector
attr source packetLength(packetPulled)
attr title "outgoing packet lengths"
attr unit b
vector 77 Network.bunkerrouter[0].eth[0].queue outgoingDataRate:vector ETV
attr interpolationmode linear
attr recordingmode vector
attr source throughput(packetPulled)
attr title "outgoing datarate"
attr unit bps
vector 78 Network.bunkerrouter[0].eth[0].mac packetReceivedFromUpper:vector(packetBytes) ETV
attr interpolationmode none
attr recordingmode vector(packetBytes)
attr source packetReceivedFromUpper
attr title "packet bytes from higher layer, packetBytes"
vector 79 Network.bunkerrouter[0].eth[0].queue queueLength:vector ETV
attr autoWarmupFilter false
attr interpolationmode sample-hold
attr recordingmode vector
attr source "warmup(atomic(constant0(packetPushEnded) + count(packetPushStarted) - count(packetPulled) - count(packetRemoved) - count(packetDropped)))"
attr title "queue length"
attr unit pk
vector 80 Network.bunkerrouter[0].eth[0].queue queueBitLength:vector ETV
attr autoWarmupFilter false
attr interpolationmode sample-hold
attr recordingmode vector
attr source "warmup(atomic(constant0(packetPushEnded) + sum(packetLength(packetPushStarted)) - sum(packetLength(packetPulled)) - sum(packetLength(packetRemoved)) - sum(packetLength(packetDropped))))"
attr title "queue bit length"
attr unit b
vector 81 Network.bunkerrouter[2].eth[0].queue incomingPacketLengths:vector ETV
attr interpolationmode none
attr recordingmode vector
attr source packetLength(packetPushStarted)
attr title "incoming packet lengths"
attr unit b
vector 82 Network.bunkerrouter[2].eth[0].queue incomingDataRate:vector ETV
attr interpolationmode linear
attr recordingmode vector
attr source throughput(packetPushStarted)
attr title "incoming datarate"
attr unit bps
vector 83 Network.bunkerrouter[2].eth[0].queue queueingTime:vector ETV
attr interpolationmode none
attr recordingmode vector
attr source queueingTime(packetPulled)
attr title "queueing times"
attr unit s
vector 84 Network.bunkerrouter[2].eth[0].queue outgoingPacketLengths:vector ETV
attr interpolationmode none
attr recordingmode vector
attr source packetLength(packetPulled)
attr title "outgoing packet lengths"
attr unit b
vector 85 Network.bunkerrouter[2].eth[0].queue outgoingDataRate:vector ETV
attr interpolationmode linear
attr recordingmode vector
attr source throughput(packetPulled)
attr title "outgoing datarate"
attr unit bps
vector 86 Network.bunkerrouter[2].eth[0].mac packetReceivedFromUpper:vector(packetBytes) ETV
attr interpolationmode none
attr recordingmode vector(packetBytes)
attr source packetReceivedFromUpper
attr title "packet bytes from higher layer, packetBytes"
vector 87 Network.bunkerrouter[2].eth[0].queue queueLength:vector ETV
attr autoWarmupFilter false
attr interpolationmode sample-hold
attr recordingmode vector
attr source "warmup(atomic(constant0(packetPushEnded) + count(packetPushStarted) - count(packetPulled) - count(packetRemoved) - count(packetDropped)))"
attr title "queue length"
attr unit pk
vector 88 Network.bunkerrouter[2].eth[0].queue queueBitLength:vector ETV
attr autoWarmupFilter false
attr interpolationmode sample-hold
attr recordingmode vector
attr source "warmup(atomic(constant0(packetPushEnded) + sum(packetLength(packetPushStarted)) - sum(packetLength(packetPulled)) - sum(packetLength(packetRemoved)) - sum(packetLength(packetDropped))))"
attr title "queue bit length"
attr unit b
vector 89 Network.bunkerrouter[0].eth[0].mac txPk:vector(packetBytes) ETV
attr interpolationmode none
attr recordingmode vector(packetBytes)
attr source packetSentToLower
attr title "packets transmitted, packetBytes"
vector 90 Network.bunkerrouter[2].eth[0].mac txPk:vector(packetBytes) ETV
attr interpolationmode none
attr recordingmode vector(packetBytes)
attr source packetSentToLower
attr title "packets transmitted, packetBytes"
vector 91 Network.mainrouter.eth[1].mac rxPkOk:vector(packetBytes) ETV
attr interpolationmode none
attr recordingmode vector(packetBytes)
attr source rxPkOk
attr title "packets received OK, packetBytes"
vector 92 Network.mainrouter.eth[1].mac passedUpPk:vector(packetBytes) ETV
attr interpolationmode none
attr recordingmode vector(packetBytes)
attr source packetSentToUpper
attr title "packets passed to higher layer, packetBytes"
vector 93 Network.mainrouter.eth[3].mac rxPkOk:vector(packetBytes) ETV
attr interpolationmode none
attr recordingmode vector(packetBytes)
attr source rxPkOk
attr title "packets received OK, packetBytes"
vector 94 Network.mainrouter.eth[3].mac passedUpPk:vector(packetBytes) ETV
attr interpolationmode none
attr recordingmode vector(packetBytes)
attr source packetSentToUpper
attr title "packets passed to higher layer, packetBytes"
vector 95 Network.mainrouter.ethernet decapPk:vector(packetBytes) ETV
attr interpolationmode none
attr recordingmode vector(packetBytes)
attr source decapPk
attr title "packets decapsulated, packetBytes"
vector 96 Network.mainrouter.ethernet encapPk:vector(packetBytes) ETV
attr interpolationmode none
attr recordingmode vector(packetBytes)
attr source encapPk
attr title "packets encapsulated, packetBytes"
vector 97 Network.mainrouter.eth[0].queue incomingPacketLengths:vector ETV
attr interpolationmode none
attr recordingmode vector
attr source packetLength(packetPushStarted)
attr title "incoming packet lengths"
attr unit b
vector 98 Network.mainrouter.eth[0].queue incomingDataRate:vector ETV
attr interpolationmode linear
attr recordingmode vector
attr source throughput(packetPushStarted)
attr title "incoming datarate"
attr unit bps
vector 99 Network.mainrouter.eth[0].queue queueingTime:vector ETV
attr interpolationmode none
attr recordingmode vector
attr source queueingTime(packetPulled)
attr title "queueing times"
attr unit s
vector 100 Network.mainrouter.eth[0].queue outgoingPacketLengths:vector ETV
attr interpolationmode none
attr recordingmode vector
attr source packetLength(packetPulled)
attr title "outgoing packet lengths"
attr unit b
vector 101 Network.mainrouter.eth[0].queue outgoingDataRate:vector ETV
attr interpolationmode linear
attr recordingmode vector
attr source throughput(packetPulled)
attr title "outgoing datarate"
attr unit bps
vector 102 Network.mainrouter.eth[0].mac packetReceivedFromUpper:vector(packetBytes) ETV
attr interpolationmode none
attr recordingmode vector(packetBytes)
attr source packetReceivedFromUpper
attr title "packet bytes from higher layer, packetBytes"
vector 103 Network.mainrouter.eth[0].queue queueLength:vector ETV
attr autoWarmupFilter false
attr interpolationmode sample-hold
attr recordingmode vector
attr source "warmup(atomic(constant0(packetPushEnded) + count(packetPushStarted) - count(packetPulled) - count(packetRemoved) - count(packetDropped)))"
attr title "queue length"
attr unit pk
vector 104 Network.mainrouter.eth[0].queue queueBitLength:vector ETV
attr autoWarmupFilter false
attr interpolationmode sample-hold
attr recordingmode vector
attr source "warmup(atomic(constant0(packetPushEnded) + sum(packetLength(packetPushStarted)) - sum(packetLength(packetPulled)) - sum(packetLength(packetRemoved)) - sum(packetLength(packetDropped))))"
attr title "queue bit length"
attr unit b
vector 105 Network.mainrouter.eth[0].mac txPk:vector(packetBytes) ETV
attr interpolationmode none
attr recordingmode vector(packetBytes)
attr source packetSentToLower
attr title "packets transmitted, packetBytes"
vector 106 Network.server.eth[0].mac rxPkOk:vector(packetBytes) ETV
attr interpolationmode none
attr recordingmode vector(packetBytes)
attr source rxPkOk
attr title "packets received OK, packetBytes"
vector 107 Network.server.eth[0].mac passedUpPk:vector(packetBytes) ETV
attr interpolationmode none
attr recordingmode vector(packetBytes)
attr source packetSentToUpper
attr title "packets passed to higher layer, packetBytes"
vector 108 Network.server.ethernet decapPk:vector(packetBytes) ETV
attr interpolationmode none
attr recordingmode vector(packetBytes)
attr source decapPk
attr title "packets decapsulated, packetBytes"
vector 109 Network.server.udp packetReceived:vector(packetBytes) ETV
attr interpolationmode none
attr recordingmode vector(packetBytes)
attr source packetReceived
attr title "packets received, packetBytes"
vector 110 Network.server.app[0] endtoenddelay:vector ETV
attr interpolationmode linear
attr recordingmode vector
attr source endtoenddelay
attr title "End-to-end Delay"
vector 111 Network.server.app[0] packetReceived:vector(packetBytes) ETV
attr interpolationmode none
attr recordingmode vector(packetBytes)
attr source packetReceived
attr title "packets received, packetBytes"
vector 112 Network.server.app[0] rcvdPkLifetime:vector ETV
attr interpolationmode none
attr recordingmode vector
attr source dataAge(packetReceived)
attr title "received packet lifetime"
attr unit s
vector 113 Network.bunkerhost[6].app[1] throughput:vector ETV
attr recordingmode vector
attr source throughput(packetSent)
attr title throughput
attr unit bps
vector 114 Network.bunkerhost[6].app[1] packetSent:vector(packetBytes) ETV
attr interpolationmode none
attr recordingmode vector(packetBytes)
attr source packetSent
attr title "packets sent, packetBytes"
vector 115 Network.bunkerhost[6].udp packetSent:vector(packetBytes) ETV
attr interpolationmode none
attr recordingmode vector(packetBytes)
attr source packetSent
attr title "packets sent, packetBytes"
vector 116 Network.bunkerhost[6].ethernet encapPk:vector(packetBytes) ETV
attr interpolationmode none
attr recordingmode vector(packetBytes)
attr source encapPk
attr title "packets encapsulated, packetBytes"
vector 117 Network.bunkerhost[6].eth[0].queue incomingPacketLengths:vector ETV
attr interpolationmode none
attr recordingmode vector
attr source packetLength(packetPushStarted)
attr title "incoming packet lengths"
attr unit b
vector 118 Network.bunkerhost[6].eth[0].queue incomingDataRate:vector ETV
attr interpolationmode linear
attr recordingmode vector
attr source throughput(packetPushStarted)
attr title "incoming datarate"
attr unit bps
vector 119 Network.bunkerhost[6].eth[0].queue queueingTime:vector ETV
attr interpolationmode none
attr recordingmode vector
attr source queueingTime(packetPulled)
attr title "queueing times"
attr unit s
vector 120 Network.bunkerhost[6].eth[0].queue outgoingPacketLengths:vector ETV
attr interpolationmode none
attr recordingmode vector
attr source packetLength(packetPulled)
attr title "outgoing packet lengths"
attr unit b
vector 121 Network.bunkerhost[6].eth[0].queue outgoingDataRate:vector ETV
attr interpolationmode linear
attr recordingmode vector
attr source throughput(packetPulled)
attr title "outgoing datarate"
attr unit bps
vector 122 Network.bunkerhost[6].eth[0].mac packetReceivedFromUpper:vector(packetBytes) ETV
attr interpolationmode none
attr recordingmode vector(packetBytes)
attr source packetReceivedFromUpper
attr title "packet bytes from higher layer, packetBytes"
vector 123 Network.bunkerhost[6].eth[0].queue queueLength:vector ETV
attr autoWarmupFilter false
attr interpolationmode sample-hold
attr recordingmode vector
attr source "warmup(atomic(constant0(packetPushEnded) + count(packetPushStarted) - count(packetPulled) - count(packetRemoved) - count(packetDropped)))"
attr title "queue length"
attr unit pk
vector 124 Network.bunkerhost[6].eth[0].queue queueBitLength:vector ETV
attr autoWarmupFilter false
attr interpolationmode sample-hold
attr recordingmode vector
attr source "warmup(atomic(constant0(packetPushEnded) + sum(packetLength(packetPushStarted)) - sum(packetLength(packetPulled)) - sum(packetLength(packetRemoved)) - sum(packetLength(packetDropped))))"
attr title "queue bit length"
attr unit b
vector 125 Network.bunkerhost[6].eth[0].mac txPk:vector(packetBytes) ETV
attr interpolationmode none
attr recordingmode vector(packetBytes)
attr source packetSentToLower
attr title "packets transmitted, packetBytes"
vector 126 Network.bunkerrouter[1].eth[3].mac rxPkOk:vector(packetBytes) ETV
attr interpolationmode none
attr recordingmode vector(packetBytes)
attr source rxPkOk
attr title "packets received OK, packetBytes"
vector 127 Network.bunkerrouter[1].eth[3].mac passedUpPk:vector(packetBytes) ETV
attr interpolationmode none
attr recordingmode vector(packetBytes)
attr source packetSentToUpper
attr title "packets passed to higher layer, packetBytes"
vector 128 Network.bunkerrouter[1].ethernet decapPk:vector(packetBytes) ETV
attr interpolationmode none
attr recordingmode vector(packetBytes)
attr source decapPk
attr title "packets decapsulated, packetBytes"
vector 129 Network.bunkerrouter[1].ethernet encapPk:vector(packetBytes) ETV
attr interpolationmode none
attr recordingmode vector(packetBytes)
attr source encapPk
attr title "packets encapsulated, packetBytes"
vector 130 Network.bunkerrouter[1].eth[0].queue incomingPacketLengths:vector ETV
attr interpolationmode none
attr recordingmode vector
attr source packetLength(packetPushStarted)
attr title "incoming packet lengths"
attr unit b
vector 131 Network.bunkerrouter[1].eth[0].queue incomingDataRate:vector ETV
attr interpolationmode linear
attr recordingmode vector
attr source throughput(packetPushStarted)
attr title "incoming datarate"
attr unit bps
vector 132 Network.bunkerrouter[1].eth[0].queue queueingTime:vector ETV
attr interpolationmode none
attr recordingmode vector
attr source queueingTime(packetPulled)
attr title "queueing times"
attr unit s
vector 133 Network.bunkerrouter[1].eth[0].queue outgoingPacketLengths:vector ETV
attr interpolationmode none
attr recordingmode vector
attr source packetLength(packetPulled)
attr title "outgoing packet lengths"
attr unit b
vector 134 Network.bunkerrouter[1].eth[0].queue outgoingDataRate:vector ETV
attr interpolationmode linear
attr recordingmode vector
attr source throughput(packetPulled)
attr title "outgoing datarate"
attr unit bps
vector 135 Network.bunkerrouter[1].eth[0].mac packetReceivedFromUpper:vector(packetBytes) ETV
attr interpolationmode none
attr recordingmode vector(packetBytes)
attr source packetReceivedFromUpper
attr title "packet bytes from higher layer, packetBytes"
vector 136 Network.bunkerrouter[1].eth[0].queue queueLength:vector ETV
attr autoWarmupFilter false
attr interpolationmode sample-hold
attr recordingmode vector
attr source "warmup(atomic(constant0(packetPushEnded) + count(packetPushStarted) - count(packetPulled) - count(packetRemoved) - count(packetDropped)))"
attr title "queue length"
attr unit pk
vector 137 Network.bunkerrouter[1].eth[0].queue queueBitLength:vector ETV
attr autoWarmupFilter false
attr interpolationmode sample-hold
attr recordingmode vector
attr source "warmup(atomic(constant0(packetPushEnded) + sum(packetLength(packetPushStarted)) - sum(packetLength(packetPulled)) - sum(packetLength(packetRemoved)) - sum(packetLength(packetDropped))))"
attr title "queue bit length"
attr unit b
vector 138 Network.bunkerrouter[1].eth[0].mac txPk:vector(packetBytes) ETV
attr interpolationmode none
attr recordingmode vector(packetBytes)
attr source packetSentToLower
attr title "packets transmitted, packetBytes"
vector 139 Network.mainrouter.eth[2].mac rxPkOk:vector(packetBytes) ETV
attr interpolationmode none
attr recordingmode vector(packetBytes)
attr source rxPkOk
attr title "packets received OK, packetBytes"
vector 140 Network.mainrouter.eth[2].mac passedUpPk:vector(packetBytes) ETV
attr interpolationmode none
attr recordingmode vector(packetBytes)
attr source packetSentToUpper
attr title "packets passed to higher layer, packetBytes"
vector 141 Network.server.app[0] unsuccessfulLookup:vector ETV
attr interpolationmode linear
attr recordingmode vector
attr source unsuccessfulLookup
attr title "Unsuccessful Lookup Count"
vector 142 Network.server.app[0] throughput:vector ETV
attr recordingmode vector
attr source throughput(packetSent)
attr title throughput
attr unit bps
vector 143 Network.server.app[0] packetSent:vector(packetBytes) ETV
attr interpolationmode none
attr recordingmode vector(packetBytes)
attr source packetSent
attr title "packets sent, packetBytes"
vector 144 Network.server.udp packetSent:vector(packetBytes) ETV
attr interpolationmode none
attr recordingmode vector(packetBytes)
attr source packetSent
attr title "packets sent, packetBytes"
vector 145 Network.server.ethernet encapPk:vector(packetBytes) ETV
attr interpolationmode none
attr recordingmode vector(packetBytes)
attr source encapPk
attr title "packets encapsulated, packetBytes"
vector 146 Network.server.eth[0].queue incomingPacketLengths:vector ETV
attr interpolationmode none
attr recordingmode vector
attr source packetLength(packetPushStarted)
attr title "incoming packet lengths"
attr unit b
vector 147 Network.server.eth[0].queue incomingDataRate:vector ETV
attr interpolationmode linear
attr recordingmode vector
attr source throughput(packetPushStarted)
attr title "incoming datarate"
attr unit bps
vector 148 Network.server.eth[0].queue queueingTime:vector ETV
attr interpolationmode none
attr recordingmode vector
attr source queueingTime(packetPulled)
attr title "queueing times"
attr unit s
vector 149 Network.server.eth[0].queue outgoingPacketLengths:vector ETV
attr interpolationmode none
attr recordingmode vector
attr source packetLength(packetPulled)
attr title "outgoing packet lengths"
attr unit b
vector 150 Network.server.eth[0].queue outgoingDataRate:vector ETV
attr interpolationmode linear
attr recordingmode vector
attr source throughput(packetPulled)
attr title "outgoing datarate"
attr unit bps
vector 151 Network.server.eth[0].mac packetReceivedFromUpper:vector(packetBytes) ETV
attr interpolationmode none
attr recordingmode vector(packetBytes)
attr source packetReceivedFromUpper
attr title "packet bytes from higher layer, packetBytes"
vector 152 Network.server.eth[0].queue queueLength:vector ETV
attr autoWarmupFilter false
attr interpolationmode sample-hold
attr recordingmode vector
attr source "warmup(atomic(constant0(packetPushEnded) + count(packetPushStarted) - count(packetPulled) - count(packetRemoved) - count(packetDropped)))"
attr title "queue length"
attr unit pk
vector 153 Network.server.eth[0].queue queueBitLength:vector ETV
attr autoWarmupFilter false
attr interpolationmode sample-hold
attr recordingmode vector
attr source "warmup(atomic(constant0(packetPushEnded) + sum(packetLength(packetPushStarted)) - sum(packetLength(packetPulled)) - sum(packetLength(packetRemoved)) - sum(packetLength(packetDropped))))"
attr title "queue bit length"
attr unit b
vector 154 Network.server.eth[0].mac txPk:vector(packetBytes) ETV
attr interpolationmode none
attr recordingmode vector(packetBytes)
attr source packetSentToLower
attr title "packets transmitted, packetBytes"
vector 155 Network.mainrouter.eth[0].mac rxPkOk:vector(packetBytes) ETV
attr interpolationmode none
attr recordingmode vector(packetBytes)
attr source rxPkOk
attr title "packets received OK, packetBytes"
vector 156 Network.mainrouter.eth[0].mac passedUpPk:vector(packetBytes) ETV
attr interpolationmode none
attr recordingmode vector(packetBytes)
attr source packetSentToUpper
attr title "packets passed to higher layer, packetBytes"
vector 157 Network.mainrouter.eth[2].queue incomingPacketLengths:vector ETV
attr interpolationmode none
attr recordingmode vector
attr source packetLength(packetPushStarted)
attr title "incoming packet lengths"
attr unit b
vector 158 Network.mainrouter.eth[2].queue incomingDataRate:vector ETV
attr interpolationmode linear
attr recordingmode vector
attr source throughput(packetPushStarted)
attr title "incoming datarate"
attr unit bps
vector 159 Network.mainrouter.eth[2].queue queueingTime:vector ETV
attr interpolationmode none
attr recordingmode vector
attr source queueingTime(packetPulled)
attr title "queueing times"
attr unit s
vector 160 Network.mainrouter.eth[2].queue outgoingPacketLengths:vector ETV
attr interpolationmode none
attr recordingmode vector
attr source packetLength(packetPulled)
attr title "outgoing packet lengths"
attr unit b
vector 161 Network.mainrouter.eth[2].queue outgoingDataRate:vector ETV
attr interpolationmode linear
attr recordingmode vector
attr source throughput(packetPulled)
attr title "outgoing datarate"
attr unit bps
vector 162 Network.mainrouter.eth[2].mac packetReceivedFromUpper:vector(packetBytes) ETV
attr interpolationmode none
attr recordingmode vector(packetBytes)
attr source packetReceivedFromUpper
attr title "packet bytes from higher layer, packetBytes"
vector 163 Network.mainrouter.eth[2].queue queueLength:vector ETV
attr autoWarmupFilter false
attr interpolationmode sample-hold
attr recordingmode vector
attr source "warmup(atomic(constant0(packetPushEnded) + count(packetPushStarted) - count(packetPulled) - count(packetRemoved) - count(packetDropped)))"
attr title "queue length"
attr unit pk
vector 164 Network.mainrouter.eth[2].queue queueBitLength:vector ETV
attr autoWarmupFilter false
attr interpolationmode sample-hold
attr recordingmode vector
attr source "warmup(atomic(constant0(packetPushEnded) + sum(packetLength(packetPushStarted)) - sum(packetLength(packetPulled)) - sum(packetLength(packetRemoved)) - sum(packetLength(packetDropped))))"
attr title "queue bit length"
attr unit b
vector 165 Network.mainrouter.eth[2].mac txPk:vector(packetBytes) ETV
attr interpolationmode none
attr recordingmode vector(packetBytes)
attr source packetSentToLower
attr title "packets transmitted, packetBytes"
vector 166 Network.bunkerrouter[1].eth[0].mac rxPkOk:vector(packetBytes) ETV
attr interpolationmode none
attr recordingmode vector(packetBytes)
attr source rxPkOk
attr title "packets received OK, packetBytes"
vector 167 Network.bunkerrouter[1].eth[0].mac passedUpPk:vector(packetBytes) ETV
attr interpolationmode none
attr recordingmode vector(packetBytes)
attr source packetSentToUpper
attr title "packets passed to higher layer, packetBytes"
vector 168 Network.bunkerrouter[1].eth[3].queue incomingPacketLengths:vector ETV
attr interpolationmode none
attr recordingmode vector
attr source packetLength(packetPushStarted)
attr title "incoming packet lengths"
attr unit b
vector 169 Network.bunkerrouter[1].eth[3].queue incomingDataRate:vector ETV
attr interpolationmode linear
attr recordingmode vector
attr source throughput(packetPushStarted)
attr title "incoming datarate"
attr unit bps
vector 170 Network.bunkerrouter[1].eth[3].queue queueingTime:vector ETV
attr interpolationmode none
attr recordingmode vector
attr source queueingTime(packetPulled)
attr title "queueing times"
attr unit s
vector 171 Network.bunkerrouter[1].eth[3].queue outgoingPacketLengths:vector ETV
attr interpolationmode none
attr recordingmode vector
attr source packetLength(packetPulled)
attr title "outgoing packet lengths"
attr unit b
vector 172 Network.bunkerrouter[1].eth[3].queue outgoingDataRate:vector ETV
attr interpolationmode linear
attr recordingmode vector
attr source throughput(packetPulled)
attr title "outgoing datarate"
attr unit bps
vector 173 Network.bunkerrouter[1].eth[3].mac packetReceivedFromUpper:vector(packetBytes) ETV
attr interpolationmode none
attr recordingmode vector(packetBytes)
attr source packetReceivedFromUpper
attr title "packet bytes from higher layer, packetBytes"
vector 174 Network.bunkerrouter[1].eth[3].queue queueLength:vector ETV
attr autoWarmupFilter false
attr interpolationmode sample-hold
attr recordingmode vector
attr source "warmup(atomic(constant0(packetPushEnded) + count(packetPushStarted) - count(packetPulled) - count(packetRemoved) - count(packetDropped)))"
attr title "queue length"
attr unit pk
vector 175 Network.bunkerrouter[1].eth[3].queue queueBitLength:vector ETV
attr autoWarmupFilter false
attr interpolationmode sample-hold
attr recordingmode vector
attr source "warmup(atomic(constant0(packetPushEnded) + sum(packetLength(packetPushStarted)) - sum(packetLength(packetPulled)) - sum(packetLength(packetRemoved)) - sum(packetLength(packetDropped))))"
attr title "queue bit length"
attr unit b
vector 176 Network.bunkerrouter[1].eth[3].mac txPk:vector(packetBytes) ETV
attr interpolationmode none
attr recordingmode vector(packetBytes)
attr source packetSentToLower
attr title "packets transmitted, packetBytes"
vector 177 Network.bunkerhost[6].eth[0].mac rxPkOk:vector(packetBytes) ETV
attr interpolationmode none
attr recordingmode vector(packetBytes)
attr source rxPkOk
attr title "packets received OK, packetBytes"
vector 178 Network.bunkerhost[6].eth[0].mac passedUpPk:vector(packetBytes) ETV
attr interpolationmode none
attr recordingmode vector(packetBytes)
attr source packetSentToUpper
attr title "packets passed to higher layer, packetBytes"
vector 179 Network.bunkerhost[6].ethernet decapPk:vector(packetBytes) ETV
attr interpolationmode none
attr recordingmode vector(packetBytes)
attr source decapPk
attr title "packets decapsulated, packetBytes"
vector 180 Network.bunkerhost[6].udp packetReceived:vector(packetBytes) ETV
attr interpolationmode none
attr recordingmode vector(packetBytes)
attr source packetReceived
attr title "packets received, packetBytes"
vector 181 Network.bunkerhost[6].app[1] endtoenddelay:vector ETV
attr interpolationmode linear
attr recordingmode vector
attr source endtoenddelay
attr title "End-to-end Delay"
vector 182 Network.bunkerhost[6].app[1] packetReceived:vector(packetBytes) ETV
attr interpolationmode none
attr recordingmode vector(packetBytes)
attr source packetReceived
attr title "packets received, packetBytes"
vector 183 Network.bunkerhost[0].app[1] throughput:vector ETV
attr recordingmode vector
attr source throughput(packetSent)
attr title throughput
attr unit bps
vector 184 Network.bunkerhost[0].app[1] packetSent:vector(packetBytes) ETV
attr interpolationmode none
attr recordingmode vector(packetBytes)
attr source packetSent
attr title "packets sent, packetBytes"
vector 185 Network.bunkerhost[3].app[1] throughput:vector ETV
attr recordingmode vector
attr source throughput(packetSent)
attr title throughput
attr unit bps
vector 186 Network.bunkerhost[3].app[1] packetSent:vector(packetBytes) ETV
attr interpolationmode none
attr recordingmode vector(packetBytes)
attr source packetSent
attr title "packets sent, packetBytes"
vector 187 Network.bunkerhost[6].app[0] throughput:vector ETV
attr recordingmode vector
attr source throughput(packetSent)
attr title throughput
attr unit bps
vector 188 Network.bunkerhost[6].app[0] packetSent:vector(packetBytes) ETV
attr interpolationmode none
attr recordingmode vector(packetBytes)
attr source packetSent
attr title "packets sent, packetBytes"
vector 189 Network.bunkerhost[10].app[1] throughput:vector ETV
attr recordingmode vector
attr source throughput(packetSent)
attr title throughput
attr unit bps
vector 190 Network.bunkerhost[10].app[1] packetSent:vector(packetBytes) ETV
attr interpolationmode none
attr recordingmode vector(packetBytes)
attr source packetSent
attr title "packets sent, packetBytes"
vector 191 Network.bunkerhost[0].udp packetSent:vector(packetBytes) ETV
attr interpolationmode none
attr recordingmode vector(packetBytes)
attr source packetSent
attr title "packets sent, packetBytes"
vector 192 Network.bunkerhost[3].udp packetSent:vector(packetBytes) ETV
attr interpolationmode none
attr recordingmode vector(packetBytes)
attr source packetSent
attr title "packets sent, packetBytes"
vector 193 Network.bunkerhost[0].ethernet encapPk:vector(packetBytes) ETV
attr interpolationmode none
attr recordingmode vector(packetBytes)
attr source encapPk
attr title "packets encapsulated, packetBytes"
vector 194 Network.bunkerhost[3].ethernet encapPk:vector(packetBytes) ETV
attr interpolationmode none
attr recordingmode vector(packetBytes)
attr source encapPk
attr title "packets encapsulated, packetBytes"
vector 195 Network.bunkerhost[0].eth[0].queue incomingPacketLengths:vector ETV
attr interpolationmode none
attr recordingmode vector
attr source packetLength(packetPushStarted)
attr title "incoming packet lengths"
attr unit b
vector 196 Network.bunkerhost[0].eth[0].queue incomingDataRate:vector ETV
attr interpolationmode linear
attr recordingmode vector
attr source throughput(packetPushStarted)
attr title "incoming datarate"
attr unit bps
vector 197 Network.bunkerhost[0].eth[0].queue queueingTime:vector ETV
attr interpolationmode none
attr recordingmode vector
attr source queueingTime(packetPulled)
attr title "queueing times"
attr unit s
vector 198 Network.bunkerhost[0].eth[0].queue outgoingPacketLengths:vector ETV
attr interpolationmode none
attr recordingmode vector
attr source packetLength(packetPulled)
attr title "outgoing packet lengths"
attr unit b
vector 199 Network.bunkerhost[0].eth[0].queue outgoingDataRate:vector ETV
attr interpolationmode linear
attr recordingmode vector
attr source throughput(packetPulled)
attr title "outgoing datarate"
attr unit bps
vector 200 Network.bunkerhost[0].eth[0].mac packetReceivedFromUpper:vector(packetBytes) ETV
attr interpolationmode none
attr recordingmode vector(packetBytes)
attr source packetReceivedFromUpper
attr title "packet bytes from higher layer, packetBytes"
vector 201 Network.bunkerhost[0].eth[0].queue queueLength:vector ETV
attr autoWarmupFilter false
attr interpolationmode sample-hold
attr recordingmode vector
attr source "warmup(atomic(constant0(packetPushEnded) + count(packetPushStarted) - count(packetPulled) - count(packetRemoved) - count(packetDropped)))"
attr title "queue length"
attr unit pk
vector 202 Network.bunkerhost[0].eth[0].queue queueBitLength:vector ETV
attr autoWarmupFilter false
attr interpolationmode sample-hold
attr recordingmode vector
attr source "warmup(atomic(constant0(packetPushEnded) + sum(packetLength(packetPushStarted)) - sum(packetLength(packetPulled)) - sum(packetLength(packetRemoved)) - sum(packetLength(packetDropped))))"
attr title "queue bit length"
attr unit b
vector 203 Network.bunkerhost[3].eth[0].queue incomingPacketLengths:vector ETV
attr interpolationmode none
attr recordingmode vector
attr source packetLength(packetPushStarted)
attr title "incoming packet lengths"
attr unit b
vector 204 Network.bunkerhost[3].eth[0].queue incomingDataRate:vector ETV
attr interpolationmode linear
attr recordingmode vector
attr source throughput(packetPushStarted)
attr title "incoming datarate"
attr unit bps
vector 205 Network.bunkerhost[3].eth[0].queue queueingTime:vector ETV
attr interpolationmode none
attr recordingmode vector
attr source queueingTime(packetPulled)
attr title "queueing times"
attr unit s
vector 206 Network.bunkerhost[3].eth[0].queue outgoingPacketLengths:vector ETV
attr interpolationmode none
attr recordingmode vector
attr source packetLength(packetPulled)
attr title "outgoing packet lengths"
attr unit b
vector 207 Network.bunkerhost[3].eth[0].queue outgoingDataRate:vector ETV
attr interpolationmode linear
attr recordingmode vector
attr source throughput(packetPulled)
attr title "outgoing datarate"
attr unit bps
vector 208 Network.bunkerhost[3].eth[0].mac packetReceivedFromUpper:vector(packetBytes) ETV
attr interpolationmode none
attr recordingmode vector(packetBytes)
attr source packetReceivedFromUpper
attr title "packet bytes from higher layer, packetBytes"
vector 209 Network.bunkerhost[3].eth[0].queue queueLength:vector ETV
attr autoWarmupFilter false
attr interpolationmode sample-hold
attr recordingmode vector
attr source "warmup(atomic(constant0(packetPushEnded) + count(packetPushStarted) - count(packetPulled) - count(packetRemoved) - count(packetDropped)))"
attr title "queue length"
attr unit pk
vector 210 Network.bunkerhost[3].eth[0].queue queueBitLength:vector ETV
attr autoWarmupFilter false
attr interpolationmode sample-hold
attr recordingmode vector
attr source "warmup(atomic(constant0(packetPushEnded) + sum(packetLength(packetPushStarted)) - sum(packetLength(packetPulled)) - sum(packetLength(packetRemoved)) - sum(packetLength(packetDropped))))"
attr title "queue bit length"
attr unit b
vector 211 Network.bunkerhost[0].eth[0].mac txPk:vector(packetBytes) ETV
attr interpolationmode none
attr recordingmode vector(packetBytes)
attr source packetSentToLower
attr title "packets transmitted, packetBytes"
vector 212 Network.bunkerhost[3].eth[0].mac txPk:vector(packetBytes) ETV
attr interpolationmode none
attr recordingmode vector(packetBytes)
attr source packetSentToLower
attr title "packets transmitted, packetBytes"
vector 213 Network.bunkerrouter[0].eth[1].mac rxPkOk:vector(packetBytes) ETV
attr interpolationmode none
attr recordingmode vector(packetBytes)
attr source rxPkOk
attr title "packets received OK, packetBytes"
vector 214 Network.bunkerrouter[0].eth[1].mac passedUpPk:vector(packetBytes) ETV
attr interpolationmode none
attr recordingmode vector(packetBytes)
attr source packetSentToUpper
attr title "packets passed to higher layer, packetBytes"
vector 215 Network.bunkerrouter[0].eth[4].mac rxPkOk:vector(packetBytes) ETV
attr interpolationmode none
attr recordingmode vector(packetBytes)
attr source rxPkOk
attr title "packets received OK, packetBytes"
vector 216 Network.bunkerrouter[0].eth[4].mac passedUpPk:vector(packetBytes) ETV
attr interpolationmode none
attr recordingmode vector(packetBytes)
attr source packetSentToUpper
attr title "packets passed to higher layer, packetBytes"
vector 217 Network.mainrouter.eth[1].queue incomingPacketLengths:vector ETV
attr interpolationmode none
attr recordingmode vector
attr source packetLength(packetPushStarted)
attr title "incoming packet lengths"
attr unit b
vector 218 Network.mainrouter.eth[1].queue incomingDataRate:vector ETV
attr interpolationmode linear
attr recordingmode vector
attr source throughput(packetPushStarted)
attr title "incoming datarate"
attr unit bps
vector 219 Network.mainrouter.eth[1].queue queueingTime:vector ETV
attr interpolationmode none
attr recordingmode vector
attr source queueingTime(packetPulled)
attr title "queueing times"
attr unit s
vector 220 Network.mainrouter.eth[1].queue outgoingPacketLengths:vector ETV
attr interpolationmode none
attr recordingmode vector
attr source packetLength(packetPulled)
attr title "outgoing packet lengths"
attr unit b
vector 221 Network.mainrouter.eth[1].queue outgoingDataRate:vector ETV
attr interpolationmode linear
attr recordingmode vector
attr source throughput(packetPulled)
attr title "outgoing datarate"
attr unit bps
vector 222 Network.mainrouter.eth[1].mac packetReceivedFromUpper:vector(packetBytes) ETV
attr interpolationmode none
attr recordingmode vector(packetBytes)
attr source packetReceivedFromUpper
attr title "packet bytes from higher layer, packetBytes"
vector 223 Network.mainrouter.eth[1].queue queueLength:vector ETV
attr autoWarmupFilter false
attr interpolationmode sample-hold
attr recordingmode vector
attr source "warmup(atomic(constant0(packetPushEnded) + count(packetPushStarted) - count(packetPulled) - count(packetRemoved) - count(packetDropped)))"
attr title "queue length"
attr unit pk
vector 224 Network.mainrouter.eth[1].queue queueBitLength:vector ETV
attr autoWarmupFilter false
attr interpolationmode sample-hold
attr recordingmode vector
attr source "warmup(atomic(constant0(packetPushEnded) + sum(packetLength(packetPushStarted)) - sum(packetLength(packetPulled)) - sum(packetLength(packetRemoved)) - sum(packetLength(packetDropped))))"
attr title "queue bit length"
attr unit b
vector 225 Network.mainrouter.eth[1].mac txPk:vector(packetBytes) ETV
attr interpolationmode none
attr recordingmode vector(packetBytes)
attr source packetSentToLower
attr title "packets transmitted, packetBytes"
vector 226 Network.mainrouter.eth[3].queue incomingPacketLengths:vector ETV
attr interpolationmode none
attr recordingmode vector
attr source packetLength(packetPushStarted)
attr title "incoming packet lengths"
attr unit b
vector 227 Network.mainrouter.eth[3].queue incomingDataRate:vector ETV
attr interpolationmode linear
attr recordingmode vector
attr source throughput(packetPushStarted)
attr title "incoming datarate"
attr unit bps
vector 228 Network.mainrouter.eth[3].queue queueingTime:vector ETV
attr interpolationmode none
attr recordingmode vector
attr source queueingTime(packetPulled)
attr title "queueing times"
attr unit s
vector 229 Network.mainrouter.eth[3].queue outgoingPacketLengths:vector ETV
attr interpolationmode none
attr recordingmode vector
attr source packetLength(packetPulled)
attr title "outgoing packet lengths"
attr unit b
vector 230 Network.mainrouter.eth[3].queue outgoingDataRate:vector ETV
attr interpolationmode linear
attr recordingmode vector
attr source throughput(packetPulled)
attr title "outgoing datarate"
attr unit bps
vector 231 Network.mainrouter.eth[3].mac packetReceivedFromUpper:vector(packetBytes) ETV
attr interpolationmode none
attr recordingmode vector(packetBytes)
attr source packetReceivedFromUpper
attr title "packet bytes from higher layer, packetBytes"
vector 232 Network.mainrouter.eth[3].queue queueLength:vector ETV
attr autoWarmupFilter false
attr interpolationmode sample-hold
attr recordingmode vector
attr source "warmup(atomic(constant0(packetPushEnded) + count(packetPushStarted) - count(packetPulled) - count(packetRemoved) - count(packetDropped)))"
attr title "queue length"
attr unit pk
vector 233 Network.mainrouter.eth[3].queue queueBitLength:vector ETV
attr autoWarmupFilter false
attr interpolationmode sample-hold
attr recordingmode vector
attr source "warmup(atomic(constant0(packetPushEnded) + sum(packetLength(packetPushStarted)) - sum(packetLength(packetPulled)) - sum(packetLength(packetRemoved)) - sum(packetLength(packetDropped))))"
attr title "queue bit length"
attr unit b
vector 234 Network.bunkerrouter[0].eth[0].mac rxPkOk:vector(packetBytes) ETV
attr interpolationmode none
attr recordingmode vector(packetBytes)
attr source rxPkOk
attr title "packets received OK, packetBytes"
vector 235 Network.bunkerrouter[0].eth[0].mac passedUpPk:vector(packetBytes) ETV
attr interpolationmode none
attr recordingmode vector(packetBytes)
attr source packetSentToUpper
attr title "packets passed to higher layer, packetBytes"
vector 236 Network.bunkerrouter[0].eth[1].queue incomingPacketLengths:vector ETV
attr interpolationmode none
attr recordingmode vector
attr source packetLength(packetPushStarted)
attr title "incoming packet lengths"
attr unit b
vector 237 Network.bunkerrouter[0].eth[1].queue incomingDataRate:vector ETV
attr interpolationmode linear
attr recordingmode vector
attr source throughput(packetPushStarted)
attr title "incoming datarate"
attr unit bps
vector 238 Network.bunkerrouter[0].eth[1].queue queueingTime:vector ETV
attr interpolationmode none
attr recordingmode vector
attr source queueingTime(packetPulled)
attr title "queueing times"
attr unit s
vector 239 Network.bunkerrouter[0].eth[1].queue outgoingPacketLengths:vector ETV
attr interpolationmode none
attr recordingmode vector
attr source packetLength(packetPulled)
attr title "outgoing packet lengths"
attr unit b
vector 240 Network.bunkerrouter[0].eth[1].queue outgoingDataRate:vector ETV
attr interpolationmode linear
attr recordingmode vector
attr source throughput(packetPulled)
attr title "outgoing datarate"
attr unit bps
vector 241 Network.bunkerrouter[0].eth[1].mac packetReceivedFromUpper:vector(packetBytes) ETV
attr interpolationmode none
attr recordingmode vector(packetBytes)
attr source packetReceivedFromUpper
attr title "packet bytes from higher layer, packetBytes"
vector 242 Network.bunkerrouter[0].eth[1].queue queueLength:vector ETV
attr autoWarmupFilter false
attr interpolationmode sample-hold
attr recordingmode vector
attr source "warmup(atomic(constant0(packetPushEnded) + count(packetPushStarted) - count(packetPulled) - count(packetRemoved) - count(packetDropped)))"
attr title "queue length"
attr unit pk
vector 243 Network.bunkerrouter[0].eth[1].queue queueBitLength:vector ETV
attr autoWarmupFilter false
attr interpolationmode sample-hold
attr recordingmode vector
attr source "warmup(atomic(constant0(packetPushEnded) + sum(packetLength(packetPushStarted)) - sum(packetLength(packetPulled)) - sum(packetLength(packetRemoved)) - sum(packetLength(packetDropped))))"
attr title "queue bit length"
attr unit b
vector 244 Network.mainrouter.eth[3].mac txPk:vector(packetBytes) ETV
attr interpolationmode none
attr recordingmode vector(packetBytes)
attr source packetSentToLower
attr title "packets transmitted, packetBytes"
vector 245 Network.bunkerrouter[0].eth[1].mac txPk:vector(packetBytes) ETV
attr interpolationmode none
attr recordingmode vector(packetBytes)
attr source packetSentToLower
attr title "packets transmitted, packetBytes"
vector 246 Network.bunkerrouter[2].eth[0].mac rxPkOk:vector(packetBytes) ETV
attr interpolationmode none
attr recordingmode vector(packetBytes)
attr source rxPkOk
attr title "packets received OK, packetBytes"
vector 247 Network.bunkerrouter[2].eth[0].mac passedUpPk:vector(packetBytes) ETV
attr interpolationmode none
attr recordingmode vector(packetBytes)
attr source packetSentToUpper
attr title "packets passed to higher layer, packetBytes"
vector 248 Network.bunkerrouter[2].eth[3].queue incomingPacketLengths:vector ETV
attr interpolationmode none
attr recordingmode vector
attr source packetLength(packetPushStarted)
attr title "incoming packet lengths"
attr unit b
vector 249 Network.bunkerrouter[2].eth[3].queue incomingDataRate:vector ETV
attr interpolationmode linear
attr recordingmode vector
attr source throughput(packetPushStarted)
attr title "incoming datarate"
attr unit bps
vector 250 Network.bunkerrouter[2].eth[3].queue queueingTime:vector ETV
attr interpolationmode none
attr recordingmode vector
attr source queueingTime(packetPulled)
attr title "queueing times"
attr unit s
vector 251 Network.bunkerrouter[2].eth[3].queue outgoingPacketLengths:vector ETV
attr interpolationmode none
attr recordingmode vector
attr source packetLength(packetPulled)
attr title "outgoing packet lengths"
attr unit b
vector 252 Network.bunkerrouter[2].eth[3].queue outgoingDataRate:vector ETV
attr interpolationmode linear
attr recordingmode vector
attr source throughput(packetPulled)
attr title "outgoing datarate"
attr unit bps
vector 253 Network.bunkerrouter[2].eth[3].mac packetReceivedFromUpper:vector(packetBytes) ETV
attr interpolationmode none
attr recordingmode vector(packetBytes)
attr source packetReceivedFromUpper
attr title "packet bytes from higher layer, packetBytes"
vector 254 Network.bunkerrouter[2].eth[3].queue queueLength:vector ETV
attr autoWarmupFilter false
attr interpolationmode sample-hold
attr recordingmode vector
attr source "warmup(atomic(constant0(packetPushEnded) + count(packetPushStarted) - count(packetPulled) - count(packetRemoved) - count(packetDropped)))"
attr title "queue length"
attr unit pk
vector 255 Network.bunkerrouter[2].eth[3].queue queueBitLength:vector ETV
attr autoWarmupFilter false
attr interpolationmode sample-hold
attr recordingmode vector
attr source "warmup(atomic(constant0(packetPushEnded) + sum(packetLength(packetPushStarted)) - sum(packetLength(packetPulled)) - sum(packetLength(packetRemoved)) - sum(packetLength(packetDropped))))"
attr title "queue bit length"
attr unit b
vector 256 Network.bunkerhost[0].eth[0].mac rxPkOk:vector(packetBytes) ETV
attr interpolationmode none
attr recordingmode vector(packetBytes)
attr source rxPkOk
attr title "packets received OK, packetBytes"
vector 257 Network.bunkerhost[0].eth[0].mac passedUpPk:vector(packetBytes) ETV
attr interpolationmode none
attr recordingmode vector(packetBytes)
attr source packetSentToUpper
attr title "packets passed to higher layer, packetBytes"
vector 258 Network.bunkerhost[0].ethernet decapPk:vector(packetBytes) ETV
attr interpolationmode none
attr recordingmode vector(packetBytes)
attr source decapPk
attr title "packets decapsulated, packetBytes"
vector 259 Network.bunkerhost[0].udp packetReceived:vector(packetBytes) ETV
attr interpolationmode none
attr recordingmode vector(packetBytes)
attr source packetReceived
attr title "packets received, packetBytes"
vector 260 Network.bunkerhost[0].app[1] endtoenddelay:vector ETV
attr interpolationmode linear
attr recordingmode vector
attr source endtoenddelay
attr title "End-to-end Delay"
vector 261 Network.bunkerhost[0].app[1] packetReceived:vector(packetBytes) ETV
attr interpolationmode none
attr recordingmode vector(packetBytes)
attr source packetReceived
attr title "packets received, packetBytes"
vector 262 Network.bunkerrouter[2].eth[3].mac txPk:vector(packetBytes) ETV
attr interpolationmode none
attr recordingmode vector(packetBytes)
attr source packetSentToLower
attr title "packets transmitted, packetBytes"
vector 263 Network.bunkerrouter[0].eth[4].queue incomingPacketLengths:vector ETV
attr interpolationmode none
attr recordingmode vector
attr source packetLength(packetPushStarted)
attr title "incoming packet lengths"
attr unit b
vector 264 Network.bunkerrouter[0].eth[4].queue incomingDataRate:vector ETV
attr interpolationmode linear
attr recordingmode vector
attr source throughput(packetPushStarted)
attr title "incoming datarate"
attr unit bps
vector 265 Network.bunkerrouter[0].eth[4].queue queueingTime:vector ETV
attr interpolationmode none
attr recordingmode vector
attr source queueingTime(packetPulled)
attr title "queueing times"
attr unit s
vector 266 Network.bunkerrouter[0].eth[4].queue outgoingPacketLengths:vector ETV
attr interpolationmode none
attr recordingmode vector
attr source packetLength(packetPulled)
attr title "outgoing packet lengths"
attr unit b
vector 267 Network.bunkerrouter[0].eth[4].queue outgoingDataRate:vector ETV
attr interpolationmode linear
attr recordingmode vector
attr source throughput(packetPulled)
attr title "outgoing datarate"
attr unit bps
vector 268 Network.bunkerrouter[0].eth[4].mac packetReceivedFromUpper:vector(packetBytes) ETV
attr interpolationmode none
attr recordingmode vector(packetBytes)
attr source packetReceivedFromUpper
attr title "packet bytes from higher layer, packetBytes"
vector 269 Network.bunkerrouter[0].eth[4].queue queueLength:vector ETV
attr autoWarmupFilter false
attr interpolationmode sample-hold
attr recordingmode vector
attr source "warmup(atomic(constant0(packetPushEnded) + count(packetPushStarted) - count(packetPulled) - count(packetRemoved) - count(packetDropped)))"
attr title "queue length"
attr unit pk
vector 270 Network.bunkerrouter[0].eth[4].queue queueBitLength:vector ETV
attr autoWarmupFilter false
attr interpolationmode sample-hold
attr recordingmode vector
attr source "warmup(atomic(constant0(packetPushEnded) + sum(packetLength(packetPushStarted)) - sum(packetLength(packetPulled)) - sum(packetLength(packetRemoved)) - sum(packetLength(packetDropped))))"
attr title "queue bit length"
attr unit b
vector 271 Network.bunkerrouter[0].eth[4].mac txPk:vector(packetBytes) ETV
attr interpolationmode none
attr recordingmode vector(packetBytes)
attr source packetSentToLower
attr title "packets transmitted, packetBytes"
vector 272 Network.bunkerhost[10].eth[0].mac rxPkOk:vector(packetBytes) ETV
attr interpolationmode none
attr recordingmode vector(packetBytes)
attr source rxPkOk
attr title "packets received OK, packetBytes"
vector 273 Network.bunkerhost[10].eth[0].mac passedUpPk:vector(packetBytes) ETV
attr interpolationmode none
attr recordingmode vector(packetBytes)
attr source packetSentToUpper
attr title "packets passed to higher layer, packetBytes"
vector 274 Network.bunkerhost[10].ethernet decapPk:vector(packetBytes) ETV
attr interpolationmode none
attr recordingmode vector(packetBytes)
attr source decapPk
attr title "packets decapsulated, packetBytes"
vector 275 Network.bunkerhost[10].udp packetReceived:vector(packetBytes) ETV
attr interpolationmode none
attr recordingmode vector(packetBytes)
attr source packetReceived
attr title "packets received, packetBytes"
vector 276 Network.bunkerhost[10].app[1] endtoenddelay:vector ETV
attr interpolationmode linear
attr recordingmode vector
attr source endtoenddelay
attr title "End-to-end Delay"
vector 277 Network.bunkerhost[10].app[1] packetReceived:vector(packetBytes) ETV
attr interpolationmode none
attr recordingmode vector(packetBytes)
attr source packetReceived
attr title "packets received, packetBytes"
vector 278 Network.bunkerhost[3].eth[0].mac rxPkOk:vector(packetBytes) ETV
attr interpolationmode none
attr recordingmode vector(packetBytes)
attr source rxPkOk
attr title "packets received OK, packetBytes"
vector 279 Network.bunkerhost[3].eth[0].mac passedUpPk:vector(packetBytes) ETV
attr interpolationmode none
attr recordingmode vector(packetBytes)
attr source packetSentToUpper
attr title "packets passed to higher layer, packetBytes"
vector 280 Network.bunkerhost[3].ethernet decapPk:vector(packetBytes) ETV
attr interpolationmode none
attr recordingmode vector(packetBytes)
attr source decapPk
attr title "packets decapsulated, packetBytes"
vector 281 Network.bunkerhost[3].udp packetReceived:vector(packetBytes) ETV
attr interpolationmode none
attr recordingmode vector(packetBytes)
attr source packetReceived
attr title "packets received, packetBytes"
vector 282 Network.bunkerhost[3].app[1] endtoenddelay:vector ETV
attr interpolationmode linear
attr recordingmode vector
attr source endtoenddelay
attr title "End-to-end Delay"
vector 283 Network.bunkerhost[3].app[1] packetReceived:vector(packetBytes) ETV
attr interpolationmode none
attr recordingmode vector(packetBytes)
attr source packetReceived
attr title "packets received, packetBytes"
vector 284 Network.bunkerhost[0].app[0] throughput:vector ETV
attr recordingmode vector
attr source throughput(packetSent)
attr title throughput
attr unit bps
vector 285 Network.bunkerhost[0].app[0] packetSent:vector(packetBytes) ETV
attr interpolationmode none
attr recordingmode vector(packetBytes)
attr source packetSent
attr title "packets sent, packetBytes"
vector 286 Network.bunkerhost[1].app[1] throughput:vector ETV
attr recordingmode vector
attr source throughput(packetSent)
attr title throughput
attr unit bps
vector 287 Network.bunkerhost[1].app[1] packetSent:vector(packetBytes) ETV
attr interpolationmode none
attr recordingmode vector(packetBytes)
attr source packetSent
attr title "packets sent, packetBytes"
vector 288 Network.bunkerhost[2].app[1] throughput:vector ETV
attr recordingmode vector
attr source throughput(packetSent)
attr title throughput
attr unit bps
vector 289 Network.bunkerhost[2].app[1] packetSent:vector(packetBytes) ETV
attr interpolationmode none
attr recordingmode vector(packetBytes)
attr source packetSent
attr title "packets sent, packetBytes"
vector 290 Network.bunkerhost[1].udp packetSent:vector(packetBytes) ETV
attr interpolationmode none
attr recordingmode vector(packetBytes)
attr source packetSent
attr title "packets sent, packetBytes"
vector 291 Network.bunkerhost[1].ethernet encapPk:vector(packetBytes) ETV
attr interpolationmode none
attr recordingmode vector(packetBytes)
attr source encapPk
attr title "packets encapsulated, packetBytes"
vector 292 Network.bunkerhost[1].eth[0].queue incomingPacketLengths:vector ETV
attr interpolationmode none
attr recordingmode vector
attr source packetLength(packetPushStarted)
attr title "incoming packet lengths"
attr unit b
vector 293 Network.bunkerhost[1].eth[0].queue incomingDataRate:vector ETV
attr interpolationmode linear
attr recordingmode vector
attr source throughput(packetPushStarted)
attr title "incoming datarate"
attr unit bps
vector 294 Network.bunkerhost[1].eth[0].queue queueingTime:vector ETV
attr interpolationmode none
attr recordingmode vector
attr source queueingTime(packetPulled)
attr title "queueing times"
attr unit s
vector 295 Network.bunkerhost[1].eth[0].queue outgoingPacketLengths:vector ETV
attr interpolationmode none
attr recordingmode vector
attr source packetLength(packetPulled)
attr title "outgoing packet lengths"
attr unit b
vector 296 Network.bunkerhost[1].eth[0].queue outgoingDataRate:vector ETV
attr interpolationmode linear
attr recordingmode vector
attr source throughput(packetPulled)
attr title "outgoing datarate"
attr unit bps
vector 297 Network.bunkerhost[1].eth[0].mac packetReceivedFromUpper:vector(packetBytes) ETV
attr interpolationmode none
attr recordingmode vector(packetBytes)
attr source packetReceivedFromUpper
attr title "packet bytes from higher layer, packetBytes"
vector 298 Network.bunkerhost[1].eth[0].queue queueLength:vector ETV
attr autoWarmupFilter false
attr interpolationmode sample-hold
attr recordingmode vector
attr source "warmup(atomic(constant0(packetPushEnded) + count(packetPushStarted) - count(packetPulled) - count(packetRemoved) - count(packetDropped)))"
attr title "queue length"
attr unit pk
vector 299 Network.bunkerhost[1].eth[0].queue queueBitLength:vector ETV
attr autoWarmupFilter false
attr interpolationmode sample-hold
attr recordingmode vector
attr source "warmup(atomic(constant0(packetPushEnded) + sum(packetLength(packetPushStarted)) - sum(packetLength(packetPulled)) - sum(packetLength(packetRemoved)) - sum(packetLength(packetDropped))))"
attr title "queue bit length"
attr unit b
vector 300 Network.bunkerhost[1].eth[0].mac txPk:vector(packetBytes) ETV
attr interpolationmode none
attr recordingmode vector(packetBytes)
attr source packetSentToLower
attr title "packets transmitted, packetBytes"
vector 301 Network.bunkerrouter[0].eth[2].mac rxPkOk:vector(packetBytes) ETV
attr interpolationmode none
attr recordingmode vector(packetBytes)
attr source rxPkOk
attr title "packets received OK, packetBytes"
vector 302 Network.bunkerrouter[0].eth[2].mac passedUpPk:vector(packetBytes) ETV
attr interpolationmode none
attr recordingmode vector(packetBytes)
attr source packetSentToUpper
attr title "packets passed to higher layer, packetBytes"
vector 303 Network.bunkerrouter[0].eth[2].queue incomingPacketLengths:vector ETV
attr interpolationmode none
attr recordingmode vector
attr source packetLength(packetPushStarted)
attr title "incoming packet lengths"
attr unit b
vector 304 Network.bunkerrouter[0].eth[2].queue incomingDataRate:vector ETV
attr interpolationmode linear
attr recordingmode vector
attr source throughput(packetPushStarted)
attr title "incoming datarate"
attr unit bps
vector 305 Network.bunkerrouter[0].eth[2].queue queueingTime:vector ETV
attr interpolationmode none
attr recordingmode vector
attr source queueingTime(packetPulled)
attr title "queueing times"
attr unit s
vector 306 Network.bunkerrouter[0].eth[2].queue outgoingPacketLengths:vector ETV
attr interpolationmode none
attr recordingmode vector
attr source packetLength(packetPulled)
attr title "outgoing packet lengths"
attr unit b
vector 307 Network.bunkerrouter[0].eth[2].queue outgoingDataRate:vector ETV
attr interpolationmode linear
attr recordingmode vector
attr source throughput(packetPulled)
attr title "outgoing datarate"
attr unit bps
vector 308 Network.bunkerrouter[0].eth[2].mac packetReceivedFromUpper:vector(packetBytes) ETV
attr interpolationmode none
attr recordingmode vector(packetBytes)
attr source packetReceivedFromUpper
attr title "packet bytes from higher layer, packetBytes"
vector 309 Network.bunkerrouter[0].eth[2].queue queueLength:vector ETV
attr autoWarmupFilter false
attr interpolationmode sample-hold
attr recordingmode vector
attr source "warmup(atomic(constant0(packetPushEnded) + count(packetPushStarted) - count(packetPulled) - count(packetRemoved) - count(packetDropped)))"
attr title "queue length"
attr unit pk
vector 310 Network.bunkerrouter[0].eth[2].queue queueBitLength:vector ETV
attr autoWarmupFilter false
attr interpolationmode sample-hold
attr recordingmode vector
attr source "warmup(atomic(constant0(packetPushEnded) + sum(packetLength(packetPushStarted)) - sum(packetLength(packetPulled)) - sum(packetLength(packetRemoved)) - sum(packetLength(packetDropped))))"
attr title "queue bit length"
attr unit b
vector 311 Network.bunkerrouter[0].eth[2].mac txPk:vector(packetBytes) ETV
attr interpolationmode none
attr recordingmode vector(packetBytes)
attr source packetSentToLower
attr title "packets transmitted, packetBytes"
vector 312 Network.bunkerrouter[0].eth[3].queue incomingPacketLengths:vector ETV
attr interpolationmode none
attr recordingmode vector
attr source packetLength(packetPushStarted)
attr title "incoming packet lengths"
attr unit b
vector 313 Network.bunkerrouter[0].eth[3].queue incomingDataRate:vector ETV
attr interpolationmode linear
attr recordingmode vector
attr source throughput(packetPushStarted)
attr title "incoming datarate"
attr unit bps
vector 314 Network.bunkerrouter[0].eth[3].queue queueingTime:vector ETV
attr interpolationmode none
attr recordingmode vector
attr source queueingTime(packetPulled)
attr title "queueing times"
attr unit s
vector 315 Network.bunkerrouter[0].eth[3].queue outgoingPacketLengths:vector ETV
attr interpolationmode none
attr recordingmode vector
attr source packetLength(packetPulled)
attr title "outgoing packet lengths"
attr unit b
vector 316 Network.bunkerrouter[0].eth[3].queue outgoingDataRate:vector ETV
attr interpolationmode linear
attr recordingmode vector
attr source throughput(packetPulled)
attr title "outgoing datarate"
attr unit bps
vector 317 Network.bunkerrouter[0].eth[3].mac packetReceivedFromUpper:vector(packetBytes) ETV
attr interpolationmode none
attr recordingmode vector(packetBytes)
attr source packetReceivedFromUpper
attr title "packet bytes from higher layer, packetBytes"
vector 318 Network.bunkerrouter[0].eth[3].queue queueLength:vector ETV
attr autoWarmupFilter false
attr interpolationmode sample-hold
attr recordingmode vector
attr source "warmup(atomic(constant0(packetPushEnded) + count(packetPushStarted) - count(packetPulled) - count(packetRemoved) - count(packetDropped)))"
attr title "queue length"
attr unit pk
vector 319 Network.bunkerrouter[0].eth[3].queue queueBitLength:vector ETV
attr autoWarmupFilter false
attr interpolationmode sample-hold
attr recordingmode vector
attr source "warmup(atomic(constant0(packetPushEnded) + sum(packetLength(packetPushStarted)) - sum(packetLength(packetPulled)) - sum(packetLength(packetRemoved)) - sum(packetLength(packetDropped))))"
attr title "queue bit length"
attr unit b
vector 320 Network.bunkerrouter[0].eth[3].mac txPk:vector(packetBytes) ETV
attr interpolationmode none
attr recordingmode vector(packetBytes)
attr source packetSentToLower
attr title "packets transmitted, packetBytes"
vector 321 Network.bunkerhost[1].eth[0].mac rxPkOk:vector(packetBytes) ETV
attr interpolationmode none
attr recordingmode vector(packetBytes)
attr source rxPkOk
attr title "packets received OK, packetBytes"
vector 322 Network.bunkerhost[1].eth[0].mac passedUpPk:vector(packetBytes) ETV
attr interpolationmode none
attr recordingmode vector(packetBytes)
attr source packetSentToUpper
attr title "packets passed to higher layer, packetBytes"
vector 323 Network.bunkerhost[1].ethernet decapPk:vector(packetBytes) ETV
attr interpolationmode none
attr recordingmode vector(packetBytes)
attr source decapPk
attr title "packets decapsulated, packetBytes"
vector 324 Network.bunkerhost[1].udp packetReceived:vector(packetBytes) ETV
attr interpolationmode none
attr recordingmode vector(packetBytes)
attr source packetReceived
attr title "packets received, packetBytes"
vector 325 Network.bunkerhost[1].app[1] endtoenddelay:vector ETV
attr interpolationmode linear
attr recordingmode vector
attr source endtoenddelay
attr title "End-to-end Delay"
vector 326 Network.bunkerhost[1].app[1] packetReceived:vector(packetBytes) ETV
attr interpolationmode none
attr recordingmode vector(packetBytes)
attr source packetReceived
attr title "packets received, packetBytes"
vector 327 Network.bunkerhost[2].eth[0].mac rxPkOk:vector(packetBytes) ETV
attr interpolationmode none
attr recordingmode vector(packetBytes)
attr source rxPkOk
attr title "packets received OK, packetBytes"
vector 328 Network.bunkerhost[2].eth[0].mac passedUpPk:vector(packetBytes) ETV
[...]
262	2624345 651 273 18086 7.0009928 291.0008552 27 66 1006 4943 2708021
263	2624996 407 279 16991 7.0010024 273.0014016 16 528 6216 57624 279733440
264	2625403 51483 279 18577 0.1 300 3000 0 62160 576240 27973344000
265	2676886 362 279 16991 7.0010024 273.0014016 16 0 0 0 0
266	2677248 407 279 16991 7.0010024 273.0014016 16 528 6216 57624 279733440
267	2677655 51483 279 18577 0.1 300 3000 0 62160 576240 27973344000
268	2729138 391 279 16991 7.0010024 273.0014016 16 66 777 7203 4370835
269	2729529 362 279 16991 7.0010024 273.0014016 16 0 0 0 0
270	2729891 362 279 16991 7.0010024 273.0014016 16 0 0 0 0
271	2730253 390 280 16992 7.0010616 273.0017688 16 66 777 7203 4370835
272	2730643 651 282 18088 7.0010928 291.0009552 27 66 1006 4943 2708021
273	2731294 651 282 18088 7.0010928 291.0009552 27 66 1006 4943 2708021
274	2731945 650 283 18089 7.0010928 291.0009552 27 48 988 4457 2538821
275	2732595 650 285 18091 7.0010928 291.0009552 27 28 968 3917 2371341
276	2733245 833 286 18092 7.0010928 291.0009552 27 0.0004776 0.0037136 0.0238752 4.268791424e-05
277	2734078 650 286 18092 7.0010928 291.0009552 27 20 960 3701 2310397
278	2734728 390 287 16994 7.0011616 273.0018688 16 66 777 7203 4370835
279	2735118 390 287 16994 7.0011616 273.0018688 16 66 777 7203 4370835
280	2735508 390 288 16995 7.0011616 273.0018688 16 48 759 6915 4116711
281	2735898 389 290 16997 7.0011616 273.0018688 16 28 739 6595 3846511
282	2736287 485 291 16998 7.0011616 273.0018688 16 0.0004176 0.002912 0.02836 6.464991872e-05
283	2736772 389 291 16998 7.0011616 273.0018688 16 20 731 6467 3742015
284	2737161 50772 292 18577 0.1 300 3000 0 1600 32000 51200000
285	2787933 320 292 18420 8 297 20 20 20 400 8000
286	2788253 50708 293 18577 0.1 300 3000 0 79680 886560 51210035200
287	2838961 633 293 18448 8 298 38 20 996 11082 7969688
288	2839594 50778 294 18577 0.1 300 3000 0 75360 690240 36345945600
289	2890372 607 294 18265 8 296 36 20 942 8628 5657894
290	2890979 974 298 18452 8 298 59 28 1004 11974 8165896
291	2891953 974 305 18460 8 298 59 48 1024 13154 8668456
292	2892927 1032 308 18464 8 298 59 528 8336 113728 586311424
293	2893959 50761 308 18577 0.1 300 3000 0 85760 1137280 61288038400
294	2944720 960 308 18464 8 298 59 0 0.0005832 0.0011536 5.3690496e-07
295	2945680 1064 308 18464 8 298 59 528 8336 113728 586311424
296	2946744 50761 308 18577 0.1 300 3000 0 85760 1137280 61288038400
297	2997505 1008 308 18464 8 298 59 66 1042 14216 9161116
298	2998513 991 308 18464 8 298 63 0 1 4 4
299	2999504 1000 308 18464 8 298 63 0 8048 9632 65606656
300	3000504 1429 311 18482 8.0000592 298.000416 59 66 1042 14216 9161116
301	3001933 1429 317 18489 8.0001592 298.000516 59 66 1042 14216 9161116
302	3003362 1429 317 18489 8.0001592 298.000516 59 66 1042 14216 9161116
303	3004791 1017 403 18021 8.0008648 290.000796 41 528 8176 105144 581854784
304	3005808 50786 403 18577 0.1 300 3000 0 81760 1051440 59719635200
305	3056594 924 403 18021 8.0008648 290.000796 41 0 9.6e-06 9.6e-06 9.216e-11
306	3057518 1017 403 18021 8.0008648 290.000796 41 528 8176 105144 581854784
307	3058535 50786 403 18577 0.1 300 3000 0 81760 1051440 59719635200
308	3109321 977 403 18021 8.0008648 290.000796 41 66 1022 13143 9091481
309	3110298 940 403 18021 8.0008648 290.000796 42 0 1 1 1
310	3111238 943 403 18021 8.0008648 290.000796 42 0 7488 7488 56070144
311	3112181 982 404 18022 8.000924 290.0008552 41 66 1022 13143 9091481
312	3113163 1422 410 18411 8.0009336 296.0010024 56 528 8304 169088 921681408
313	3114585 50821 410 18577 0.1 300 3000 0 114880 1690880 100146636800
314	3165406 1286 410 18411 8.0009336 296.0010024 56 0 0.0002416 0.0002416 5.837056e-08
315	3166692 1423 410 18411 8.0009336 296.0010024 56 528 8304 169088 921681408
316	3168115 50821 410 18577 0.1 300 3000 0 114880 1690880 100146636800
317	3218936 1371 410 18411 8.0009336 296.0010024 56 66 1038 21136 14401272
318	3220307 1301 410 18411 8.0009336 296.0010024 57 0 1 1 1
319	3221608 1303 410 18411 8.0009336 296.0010024 57 0 528 528 278784
320	3222911 1382 411 18412 8.0009928 296.0010616 56 66 1038 21136 14401272
321	3224293 982 413 18024 8.001024 290.0009552 41 66 1022 13143 9091481
322	3225275 982 413 18024 8.001024 290.0009552 41 66 1022 13143 9091481
323	3226257 982 414 18025 8.001024 290.0009552 41 48 1004 12405 8631617
324	3227239 981 416 18027 8.001024 290.0009552 41 28 984 11585 8151817
325	3228220 1247 417 18028 8.001024 290.0009552 41 0.0003552 0.003696 0.0459848 8.805102016e-05
326	3229467 981 417 18028 8.001024 290.0009552 41 20 976 11257 7969081
327	3230448 1382 418 18414 8.0010928 296.0011616 56 66 1038 21136 14401272
328	3231830 1382 418 18414 8.0010928 296.0011616 56 66 1038 21136 14401272
329	3233212 1380 419 18415 8.0010928 296.0011616 56 48 1020 20128 13658520
330	3234592 1378 421 18417 8.0010928 296.0011616 56 28 1000 19008 12875800
331	3235970 1732 422 18418 8.0010928 296.0011616 56 0.0003632 0.004096 0.0763608 0.0001619107104
332	3237702 1377 422 18418 8.0010928 296.0011616 56 20 992 18560 12575256
333	3239079 50715 424 18577 0.1 300 3000 0 1600 33600 53760000
334	3289794 333 424 18263 9 296 21 20 20 420 8400
335	3290127 50965 425 18577 0.1 300 3000 0 1600 33600 53760000
336	3341092 337 425 18449 9 298 21 20 20 420 8400
337	3341429 615 429 18453 9 298 37 28 1002 9730 6312208
338	3342044 616 434 18461 9 298 37 48 1022 10470 6716208
339	3342660 651 436 18465 9 298 37 528 8320 89088 454727424
340	3343311 50848 436 18577 0.1 300 3000 0 83200 890880 45472742400
341	3394159 562 436 18465 9 298 37 0 0 0 0
342	3394721 651 436 18465 9 298 37 528 8320 89088 454727424
343	3395372 50848 436 18577 0.1 300 3000 0 83200 890880 45472742400
344	3446220 616 436 18465 9 298 37 66 1040 11136 7105116
345	3446836 562 436 18465 9 298 37 0 0 0 0
346	3447398 562 436 18465 9 298 37 0 0 0 0
347	3447960 909 438 18466 9.0000592 298.0000592 37 66 1040 11136 7105116
348	3448869 909 442 18468 9.0001592 298.0001592 37 66 1040 11136 7105116
349	3449778 909 442 18468 9.0001592 298.0001592 37 66 1040 11136 7105116
350	3450687 50704 480 18577 0.1 300 3000 0 77840 590320 28921657600
351	3501391 345 480 17474 10 282 20 20 973 7379 4512769
352	3501736 50778 481 18577 0.1 300 3000 0 79680 408480 24285568000
353	3552514 712 481 18262 10 296 40 20 976 5106 3657260
354	3553226 749 484 18271 10 296 45 28 981 8239 4651713
355	3553975 1038 486 18269 10 296 60 28 984 5986 3757196
356	3555013 750 489 18279 10 296 45 48 1001 9139 4999273
357	3555763 1040 490 18277 10 296 60 48 1004 7186 4020636
358	3556803 794 491 18283 10 296 45 528 8152 79592 341942848
359	3557597 50780 491 18577 0.1 300 3000 0 81520 795920 34364934400
360	3608377 688 491 18283 10 296 45 0 0 0 0
361	3609065 794 491 18283 10 296 45 528 8152 79592 341942848
362	3609859 50780 491 18577 0.1 300 3000 0 81520 795920 34364934400
363	3660639 750 491 18283 10 296 45 66 1019 9949 5342857
364	3661389 688 491 18283 10 296 45 0 0 0 0
365	3662077 688 491 18283 10 296 45 0 0 0 0
366	3662765 1099 492 18281 10 296 60 528 8176 66128 275121408
367	3663864 50833 492 18577 0.1 300 3000 0 92320 661280 31715865600
368	3714697 1015 492 18281 10 296 60 0 6.88e-05 0.0002064 1.420032e-08
369	3715712 1123 492 18281 10 296 60 528 8176 66128 275121408
370	3716835 50833 492 18577 0.1 300 3000 0 92320 661280 31715865600
371	3767668 1065 492 18281 10 296 60 66 1022 8266 4298772
372	3768733 1038 492 18281 10 296 63 0 1 3 3
373	3769771 1044 492 18281 10 296 63 0 528 1584 836352
374	3770815 1100 493 18287 10.0000592 296.0000592 45 66 1019 9949 5342857
375	3771915 1461 494 18285 10.0000592 296.0000592 60 66 1022 8266 4298772
376	3773376 1100 497 18295 10.0001592 296.0001592 45 66 1019 9949 5342857
377	3774476 1100 497 18295 10.0001592 296.0001592 45 66 1019 9949 5342857
378	3775576 1461 498 18293 10.0001592 296.0001592 60 66 1022 8266 4298772
379	3777037 1461 498 18293 10.0001592 296.0001592 60 66 1022 8266 4298772
380	3778498 221 565 15912 10.000796 256.0021624 9 528 6144 25176 109895872
381	3778719 50744 565 18577 0.1 300 3000 0 61440 251760 10989587200
382	3829463 198 565 15912 10.000796 256.0021624 9 0 0 0 0
383	3829661 221 565 15912 10.000796 256.0021624 9 528 6144 25176 109895872
384	3829882 50744 565 18577 0.1 300 3000 0 61440 251760 10989587200
385	3880626 212 565 15912 10.000796 256.0021624 9 66 768 3147 1717123
386	3880838 198 565 15912 10.000796 256.0021624 9 0 0 0 0
387	3881036 198 565 15912 10.000796 256.0021624 9 0 0 0 0
388	3881234 214 566 15913 10.0008552 256.0027832 9 66 768 3147 1717123
389	3881448 1330 572 18542 10.0008648 298.001548 53 528 8344 128056 677529280
390	3882778 50844 572 18577 0.1 300 3000 0 100400 1280560 73462828800
391	3933622 1202 572 18542 10.0008648 298.001548 53 0 0 0 0
392	3934824 1330 572 18542 10.0008648 298.001548 53 528 8344 128056 677529280
393	3936154 50844 572 18577 0.1 300 3000 0 100400 1280560 73462828800
394	3986998 1280 572 18542 10.0008648 298.001548 53 66 1043 16007 10586395
395	3988278 1202 572 18542 10.0008648 298.001548 53 0 0 0 0
396	3989480 1202 572 18542 10.0008648 298.001548 53 0 0 0 0
397	3990682 1307 573 18543 10.000924 298.001964 53 66 1043 16007 10586395
398	3991989 214 575 15915 10.0009552 256.0028832 9 66 768 3147 1717123
399	3992203 214 575 15915 10.0009552 256.0028832 9 66 768 3147 1717123
400	3992417 214 576 15916 10.0009552 256.0028832 9 48 750 2985 1606747
401	3992631 214 578 15918 10.0009552 256.0028832 9 28 730 2805 1490947
402	3992845 270 579 15919 10.0009552 256.0028832 9 0.0004776 0.0028832 0.0135728 2.798604544e-05
403	3993115 214 579 15919 10.0009552 256.0028832 9 20 722 2733 1446643
404	3993329 1307 580 18545 10.001024 298.002064 53 66 1043 16007 10586395
405	3994636 1307 580 18545 10.001024 298.002064 53 66 1043 16007 10586395
406	3995943 1307 581 18546 10.001024 298.002064 53 48 1025 15053 10027315
407	3997250 1306 583 18548 10.001024 298.002064 53 28 1005 13993 9446395
408	3998556 1650 584 18549 10.001024 298.002064 53 0.0004776 0.0037632 0.0624704 0.00013533476352
409	4000206 1304 584 18549 10.001024 298.002064 53 20 997 13569 9225899
410	4001510 50701 585 18577 0.1 300 3000 0 79360 800320 45966233600
411	4052211 326 585 18029 11 291 19 20 992 10004 7179704
412	4052537 50721 586 18577 0.1 300 3000 0 67360 785920 35503654400
413	4103258 451 586 18552 11 299 26 20 842 9824 5490286
414	4103709 637 589 18573 11 300 38 28 1000 10688 7355880
415	4104346 754 591 18553 11 299 45 28 850 10564 5664030
416	4105100 638 594 18575 11 300 38 48 1020 11448 7798600
417	4105738 754 595 18555 11 299 45 48 870 11464 6104590
418	4106492 674 596 18576 11 300 38 528 8304 97056 526274560
419	4107166 50754 596 18576 0.1 300 3000 0 83040 965280 53131801600
420	4157920 598 596 18576 11 300 38 0 0.0004328 0.0004328 1.8731584e-07
421	4158518 682 596 18576 11 300 38 528 8304 97056 526274560
422	4159200 50754 596 18576 0.1 300 3000 0 83040 965280 53131801600
423	4209954 647 596 18576 11 300 38 66 1038 12132 8223040
424	4210601 606 596 18576 11 300 39 0 1 1 1
425	4211207 608 596 18576 11 300 39 0 528 528 278784
426	4211815 799 597 18556 11 299 45 528 7104 98192 418039936
427	4212614 50772 597 18577 0.1 300 3000 0 71040 981920 43780825600
428	4263386 719 597 18556 11 299 45 0 0.0003624 0.0006504 2.1427776e-07
429	4264105 814 597 18556 11 299 45 528 7104 98192 418039936
430	4264919 50772 597 18577 0.1 300 3000 0 71040 981920 43780825600
431	4315691 769 597 18556 11 299 45 66 888 12274 6531874
432	4316460 735 597 18556 11 299 47 0 1 2 2
433	4317195 739 597 18556 11 299 47 0 528 1056 557568
434	4317934 907 598 18074 11.0000592 291.0007344 37 66 1038 12066 8218684
435	4318841 1089 599 18557 11.0000592 299.00022 45 66 888 12274 6531874
436	4319930 907 602 18081 11.0001592 291.0008344 37 66 1038 12066 8218684
437	4320837 907 602 18081 11.0001592 291.0008344 37 66 1038 12066 8218684
438	4321744 1089 603 18559 11.0001592 299.00032 45 66 888 12274 6531874
439	4322833 1089 603 18559 11.0001592 299.00032 45 66 888 12274 6531874
440	4323922 573 634 16623 11.0004776 268.0004776 25 1 25 325 5525
441	4324495 645 670 18134 11.000796 292.0004656 25 528 8152 97576 512894528
442	4325140 50720 670 18577 0.1 300 3000 0 81520 975760 51289452800
443	4375860 572 670 18134 11.000796 292.0004656 25 0 0 0 0
444	4376432 645 670 18134 11.000796 292.0004656 25 528 8152 97576 512894528
445	4377077 50720 670 18577 0.1 300 3000 0 81520 975760 51289452800
446	4427797 621 670 18134 11.000796 292.0004656 25 66 1019 12197 8013977
447	4428418 572 670 18134 11.000796 292.0004656 25 0 0 0 0
448	4428990 572 670 18134 11.000796 292.0004656 25 0 0 0 0
449	4429562 621 671 18142 11.0008552 292.0008312 25 66 1019 12197 8013977
450	4430183 689 677 18195 11.0008648 293.0022008 27 528 8336 106256 606742528
451	4430872 50772 677 18577 0.1 300 3000 0 83360 1062560 60943744000
452	4481644 613 677 18195 11.0008648 293.0022008 27 0 0 0 0
453	4482257 689 677 18195 11.0008648 293.0022008 27 528 8336 106256 606742528
454	4482946 50772 677 18577 0.1 300 3000 0 83360 1062560 60943744000
455	4533718 664 677 18195 11.0008648 293.0022008 27 66 1042 13282 9480352
456	4534382 613 677 18195 11.0008648 293.0022008 27 0 0 0 0
457	4534995 613 677 18195 11.0008648 293.0022008 27 0 0 0 0
458	4535608 662 678 18196 11.000924 293.0028344 27 66 1042 13282 9480352
459	4536270 621 680 18144 11.0009552 292.0009312 25 66 1019 12197 8013977
460	4536891 621 680 18144 11.0009552 292.0009312 25 66 1019 12197 8013977
461	4537512 621 681 18145 11.0009552 292.0009312 25 48 1001 11747 7582985
462	4538133 620 683 18147 11.0009552 292.0009312 25 28 981 11247 7123105
463	4538753 764 684 18148 11.0009552 292.0009312 25 0.0004776 0.00394 0.04454 0.00010308644544
464	4539517 620 684 18148 11.0009552 292.0009312 25 20 973 11047 6944753
465	4540137 312 684 18029 11.0009552 291 18 42 992 9984 7179304
466	4540449 662 689 18198 11.001024 293.0029344 27 66 1042 13282 9480352
467	4541111 662 689 18198 11.001024 293.0029344 27 66 1042 13282 9480352
468	4541773 661 690 18199 11.001024 293.0029344 27 48 1024 12796 9010948
469	4542434 661 692 18201 11.001024 293.0029344 27 28 1004 12256 8509908
470	4543095 816 693 18202 11.001024 293.0029344 27 0.0004776 0.00376 0.0477752 0.0001147226528
471	4543911 660 693 18202 11.001024 293.0029344 27 20 996 12040 8315540
472	4544571 377 693 18552 11.001024 299 21 34 842 9724 5488286
473	4544948 1082 732 18169 11.0017296 292.0029984 35 0.0003632 0.004096 0.0660896 0.00015683142656
474	4546030 279 934 18203 13.001024 294 16 48 970 6557 3669425
475	4546309 204 959 18254 13.0018664 294.0006232 8 912 8112 31792 164945280
476	4546513 50713 959 18577 0.1 300 3000 0 81120 317920 16494528000
477	4597226 181 959 18254 13.0018664 294.0006232 8 0 0 0 0
478	4597407 204 959 18254 13.0018664 294.0006232 8 912 8112 31792 164945280
479	4597611 50713 959 18577 0.1 300 3000 0 81120 317920 16494528000
480	4648324 198 959 18254 13.0018664 294.0006232 8 114 1014 3974 2577270
481	4648522 181 959 18254 13.0018664 294.0006232 8 0 0 0 0
482	4648703 181 959 18254 13.0018664 294.0006232 8 0 0 0 0
483	4648884 198 960 18255 13.0020472 294.0007208 8 114 1014 3974 2577270
484	4649082 198 962 18257 13.0021472 294.0008208 8 114 1014 3974 2577270
485	4649280 198 962 18257 13.0021472 294.0008208 8 114 1014 3974 2577270
486	4649478 196 963 18258 13.0021472 294.0008208 8 96 996 3830 2436798
487	4649674 196 965 18260 13.0021472 294.0008208 8 76 976 3670 2286798
488	4649870 243 966 18261 13.0021472 294.0008208 8 0.0008208 0.0036704 0.016152 3.871384832e-05
489	4650113 196 966 18261 13.0021472 294.0008208 8 68 968 3606 2228590
490	4650309 243 966 18261 13.0021472 294.0008208 8 0.0008208 0.0036704 0.016152 3.871384832e-05
491	4650552 50842 1046 18577 0.1 300 3000 0 1600 32000 51200000
492	4701394 326 1046 17931 15 289 20 20 20 400 8000
493	4701720 277 1074 16938 16 273 16 48 994 9014 6150496
494	4701997 50875 1074 18577 0.1 300 3000 0 79520 721120 39363174400
495	4752872 277 1074 16938 16 273 16 48 994 9014 6150496
496	4753149 429 1107 16998 16.0028576 273.0018688 14 0.0004176 0.002912 0.0274048 6.41937152e-05
497	4753578 50905 1109 18577 0.1 300 3000 0 1600 33600 53760000
498	4804483 340 1109 18204 17 294 21 20 20 420 8400
499	4804823 51027 1110 18577 0.1 300 3000 0 1600 40000 64000000
500	4855850 404 1110 18264 17 296 25 20 20 500 10000
501	4856254 268 1255 15582 17.0009552 252 15 82 942 8208 5649494
502	4856522 276 1331 17102 18.0009552 275 15 27 847 6516 3877582
503	4856798 576 1363 16848 18.0035408 269.0032416 19 0.0003552 0.003696 0.0354776 8.303278144e-05
504	4857374 50846 1420 18571 0.1 300 3000 0 1600 28800 46080000
505	4908220 310 1420 18571 20 300 19 20 20 380 7600
506	4908530 213 1495 16667 20.0009552 268.0009552 9 84 976 4486 3644860
507	4908743 442 1579 18117 21.0009552 292 24 114 993 13075 8628897
508	4909185 470 1611 15678 21.0045072 252.0018528 15 0.0009376 0.0037504 0.0318208 8.137733632e-05
509	4909655 50849 1612 18577 0.1 300 3000 0 1600 30400 48640000
510	4960504 303 1612 16511 22 267 19 20 20 380 7600
511	4960807 374 1795 18170 24.0009552 293 21 43 997 12975 10242819
512	4961181 670 2056 18202 26.0024704 293.0029344 22 0.0009472 0.00376 0.0453872 0.000113582144
513	4961851 301 2139 17474 27.0009552 282 17 25 973 7319 4511569
514	4962152 735 2171 18148 27.0020272 292.0009312 24 0.0007176 0.00394 0.0440624 0.00010285834368
515	4962887 286 2173 18448 28 298 16 121 996 10642 7960888
516	4963173 731 2281 18570 28.0022672 299.00064 24 0.0003408 0.0036544 0.043632 0.00010242056192
517	4963904 153 2288 15075 28.002528 241.0019936 5 0.0019936 0.0037136 0.013368 3.766967552e-05
518	4964057 181 2542 15919 31.002016 256.0028832 6 0.0007072 0.0028832 0.01214 2.730174016e-05
519	4964238 50925 4183 18577 0.1 300 3000 0 1600 33600 53760000
520	5015163 343 4183 18447 55 298 21 20 20 420 8400
521	5015506 469 4186 18451 55 298 28 28 893 3871 2045893
522	5015975 469 4192 18459 55 298 28 48 913 4431 2211933
523	5016444 497 4195 18463 55 298 28 528 7448 39480 152353344
524	5016941 50950 4195 18577 0.1 300 3000 0 74480 394800 15863020800
525	5067891 450 4195 18495 55 298.0006104 28 0 0.0006104 0.0006104 3.7258816e-07
526	5068341 505 4195 18495 55 298.0006104 28 528 7448 39480 152353344
527	5068846 50950 4195 18577 0.1 300 3000 0 74480 394800 15863020800
528	5119796 477 4195 18495 55 298.0006104 28 66 931 4935 2380521
529	5120273 458 4195 18495 55 298.0006104 29 0 1 1 1
530	5120731 460 4195 18495 55 298.0006104 29 0 528 528 278784
531	5121191 692 4198 18496 55.0000592 298.0006696 28 66 931 4935 2380521
532	5121883 692 4204 18503 55.0001592 298.0007696 28 66 931 4935 2380521
533	5122575 692 4204 18503 55.0001592 298.0007696 28 66 931 4935 2380521
534	5123267 689 4499 18549 58.0015072 298.002064 22 0.0005024 0.0037632 0.0476648 0.00012826360896
535	5123956 27 11988 11988 187.0011808 187.0011808 1 1192 1192 1192 1420864
536	5123983 52306 11988 18577 0.1 300 3000 0 11920 11920 142086400
537	5176289 24 11988 11988 187.0011808 187.0011808 1 0 0 0 0
538	5176313 27 11988 11988 187.0011808 187.0011808 1 1192 1192 1192 1420864
539	5176340 52306 11988 18577 0.1 300 3000 0 11920 11920 142086400
540	5228646 26 11988 11988 187.0011808 187.0011808 1 149 149 149 22201
541	5228672 24 11988 11988 187.0011808 187.0011808 1 0 0 0 0
542	5228696 24 11988 11988 187.0011808 187.0011808 1 0 0 0 0
543	5228720 26 11989 11989 187.0013064 187.0013064 1 149 149 149 22201
544	5228746 26 11991 11991 187.0014064 187.0014064 1 149 149 149 22201
545	5228772 26 11991 11991 187.0014064 187.0014064 1 149 149 149 22201
546	5228798 26 11992 11992 187.0014064 187.0014064 1 131 131 131 17161
547	5228824 26 11994 11994 187.0014064 187.0014064 1 111 111 111 12321
548	5228850 32 11995 11995 187.0014064 187.0014064 1 0.0004512 0.0004512 0.0004512 2.0358144e-07
549	5228882 26 11995 11995 187.0014064 187.0014064 1 103 103 103 10609
550	5228908 32 11995 11995 187.0014064 187.0014064 1 0.0004512 0.0004512 0.0004512 2.0358144e-07
551	5228940 126 12348 18446 194 298 7 135 885 3227 1977349
552	5229066 52330 12348 18577 0.1 300 3000 0 70800 258160 12655033600
553	5281396 126 12348 18446 194 298 7 135 885 3227 1977349

