file 5247525 1671048331                                         
version 3
run routerBufferCapacity_4-0-20221214-21:05:30-92657
attr configname routerBufferCapacity_4
attr datetime 20221214-21:05:30
attr datetimef 20221214-210530
attr experiment routerBufferCapacity_4
attr inifile ./simulations/omnetpp.ini
attr iterationvars "$bnum=int(uniform(2, 5)), $hnum=int(uniform(2, 5)), $xnum=int(uniform(1, 2))"
attr iterationvarsd bnum=int(uniform(2,_5))/hnum=int(uniform(2,_5))/xnum=int(uniform(1,_2))
attr iterationvarsf bnum=int(uniform(2,_5)),hnum=int(uniform(2,_5)),xnum=int(uniform(1,_2))-
attr measurement "$bnum=int(uniform(2, 5)), $hnum=int(uniform(2, 5)), $xnum=int(uniform(1, 2))"
attr network Network
attr processid 92657
attr repetition 0
attr replication #0
attr resultdir results
attr runnumber 0
attr seedset 0
itervar bnum "int(uniform(2, 5))"
itervar hnum "int(uniform(2, 5))"
itervar xnum "int(uniform(1, 2))"
config image-path ../../omnetpp-6.0.1/samples/inet4.4/images
config *.*router.eth[*].queue.packetCapacity 4
config network Network
config sim-time-limit 300s
config output-scalar-file results/scalars.sca
config output-vector-file results/vectors.vec
config seed-0-mt 1
config *.configurator.dumpAddresses true
config *.configurator.dumpTopology true
config *.configurator.dumpLinks true
config *.configurator.dumpRoutes true
config *.configurator.config "xmldoc(\"config.xml\")"
config *.visualizer.interfaceTableVisualizer.displayInterfaceTables true
config *.visualizer.interfaceTableVisualizer.nodeFilter "\"not (*router*)\""
config *.cableBandwidth 100Mbps
config *.cableLength 2km
config *.cableBandwidth.param-record-as-scalar true
config *.cableLength.param-record-as-scalar true
config *.*.ipv4.arp.typename GlobalArp
config *.*.ipv4.routingTable.netmaskRoutes "\"\""
config *.*router.eth[*].queue.typename DropTailQueue
config *.*router.eth[*].queue.packetCapacity 10
config *.server.numApps 1
config *.server.app[0].typename ServerApp
config *.server.app[0].heartbeatThreshold 15
config *.bunker_number "int(uniform(2, 5))"
config *.host_number "int(uniform(2, 5))"
config *.nonExist_host_number "int(uniform(1, 2))"
config *.bunker_number.param-record-as-scalar true
config *.host_number.param-record-as-scalar true
config *.nonExist_host_number.param-record-as-scalar true
config *.bunkerhost[*].numApps 2
config *.bunkerhost[*].app[*].destAddress "\"server\""
config *.bunkerhost[*].app[0].sendInterval "int(uniform(5s, 10s))"
config *.bunkerhost[*].app[1].sendInterval "int(uniform(6s, 12s))"
config *.bunkerhost[*].app[0].typename HeartBeatApp
config *.bunkerhost[*].app[1].typename ClientApp
config *.bunkerhost[*].app[1].bunker_number "int(uniform(2, 5))"
config *.bunkerhost[*].app[1].host_number "int(uniform(2, 5))"
config *.bunkerhost[*].app[1].nonExist_host_number "int(uniform(1, 2))"

vector 0 Network.server.udp passedUpPk:vector(count) ETV
attr interpolationmode none
attr recordingmode vector(count)
attr source packetSentToUpper
attr title "packets passed up, count"
vector 1 Network.server.udp droppedPkWrongPort:vector(count) ETV
attr interpolationmode none
attr recordingmode vector(count)
attr source packetDropReasonIsNoPortFound(packetDropped)
attr title "packets dropped (wrong port), count"
vector 2 Network.server.udp droppedPkBadChecksum:vector(count) ETV
attr interpolationmode none
attr recordingmode vector(count)
attr source packetDropReasonIsIncorrectlyReceived(packetDropped)
attr title "packets dropped (checksum error), count"
vector 3 Network.bunkerhost[0].udp passedUpPk:vector(count) ETV
attr interpolationmode none
attr recordingmode vector(count)
attr source packetSentToUpper
attr title "packets passed up, count"
vector 4 Network.bunkerhost[0].udp droppedPkWrongPort:vector(count) ETV
attr interpolationmode none
attr recordingmode vector(count)
attr source packetDropReasonIsNoPortFound(packetDropped)
attr title "packets dropped (wrong port), count"
vector 5 Network.bunkerhost[0].udp droppedPkBadChecksum:vector(count) ETV
attr interpolationmode none
attr recordingmode vector(count)
attr source packetDropReasonIsIncorrectlyReceived(packetDropped)
attr title "packets dropped (checksum error), count"
vector 6 Network.bunkerhost[1].udp passedUpPk:vector(count) ETV
attr interpolationmode none
attr recordingmode vector(count)
attr source packetSentToUpper
attr title "packets passed up, count"
vector 7 Network.bunkerhost[1].udp droppedPkWrongPort:vector(count) ETV
attr interpolationmode none
attr recordingmode vector(count)
attr source packetDropReasonIsNoPortFound(packetDropped)
attr title "packets dropped (wrong port), count"
vector 8 Network.bunkerhost[1].udp droppedPkBadChecksum:vector(count) ETV
attr interpolationmode none
attr recordingmode vector(count)
attr source packetDropReasonIsIncorrectlyReceived(packetDropped)
attr title "packets dropped (checksum error), count"
vector 9 Network.bunkerhost[2].udp passedUpPk:vector(count) ETV
attr interpolationmode none
attr recordingmode vector(count)
attr source packetSentToUpper
attr title "packets passed up, count"
vector 10 Network.bunkerhost[2].udp droppedPkWrongPort:vector(count) ETV
attr interpolationmode none
attr recordingmode vector(count)
attr source packetDropReasonIsNoPortFound(packetDropped)
attr title "packets dropped (wrong port), count"
vector 11 Network.bunkerhost[2].udp droppedPkBadChecksum:vector(count) ETV
attr interpolationmode none
attr recordingmode vector(count)
attr source packetDropReasonIsIncorrectlyReceived(packetDropped)
attr title "packets dropped (checksum error), count"
vector 12 Network.bunkerhost[3].udp passedUpPk:vector(count) ETV
attr interpolationmode none
attr recordingmode vector(count)
attr source packetSentToUpper
attr title "packets passed up, count"
vector 13 Network.bunkerhost[3].udp droppedPkWrongPort:vector(count) ETV
attr interpolationmode none
attr recordingmode vector(count)
attr source packetDropReasonIsNoPortFound(packetDropped)
attr title "packets dropped (wrong port), count"
vector 14 Network.bunkerhost[3].udp droppedPkBadChecksum:vector(count) ETV
attr interpolationmode none
attr recordingmode vector(count)
attr source packetDropReasonIsIncorrectlyReceived(packetDropped)
attr title "packets dropped (checksum error), count"
vector 15 Network.bunkerhost[4].udp passedUpPk:vector(count) ETV
attr interpolationmode none
attr recordingmode vector(count)
attr source packetSentToUpper
attr title "packets passed up, count"
vector 16 Network.bunkerhost[4].udp droppedPkWrongPort:vector(count) ETV
attr interpolationmode none
attr recordingmode vector(count)
attr source packetDropReasonIsNoPortFound(packetDropped)
attr title "packets dropped (wrong port), count"
vector 17 Network.bunkerhost[4].udp droppedPkBadChecksum:vector(count) ETV
attr interpolationmode none
attr recordingmode vector(count)
attr source packetDropReasonIsIncorrectlyReceived(packetDropped)
attr title "packets dropped (checksum error), count"
vector 18 Network.bunkerhost[5].udp passedUpPk:vector(count) ETV
attr interpolationmode none
attr recordingmode vector(count)
attr source packetSentToUpper
attr title "packets passed up, count"
vector 19 Network.bunkerhost[5].udp droppedPkWrongPort:vector(count) ETV
attr interpolationmode none
attr recordingmode vector(count)
attr source packetDropReasonIsNoPortFound(packetDropped)
attr title "packets dropped (wrong port), count"
vector 20 Network.bunkerhost[5].udp droppedPkBadChecksum:vector(count) ETV
attr interpolationmode none
attr recordingmode vector(count)
attr source packetDropReasonIsIncorrectlyReceived(packetDropped)
attr title "packets dropped (checksum error), count"
vector 21 Network.bunkerhost[6].udp passedUpPk:vector(count) ETV
attr interpolationmode none
attr recordingmode vector(count)
attr source packetSentToUpper
attr title "packets passed up, count"
vector 22 Network.bunkerhost[6].udp droppedPkWrongPort:vector(count) ETV
attr interpolationmode none
attr recordingmode vector(count)
attr source packetDropReasonIsNoPortFound(packetDropped)
attr title "packets dropped (wrong port), count"
vector 23 Network.bunkerhost[6].udp droppedPkBadChecksum:vector(count) ETV
attr interpolationmode none
attr recordingmode vector(count)
attr source packetDropReasonIsIncorrectlyReceived(packetDropped)
attr title "packets dropped (checksum error), count"
vector 24 Network.bunkerhost[7].udp passedUpPk:vector(count) ETV
attr interpolationmode none
attr recordingmode vector(count)
attr source packetSentToUpper
attr title "packets passed up, count"
vector 25 Network.bunkerhost[7].udp droppedPkWrongPort:vector(count) ETV
attr interpolationmode none
attr recordingmode vector(count)
attr source packetDropReasonIsNoPortFound(packetDropped)
attr title "packets dropped (wrong port), count"
vector 26 Network.bunkerhost[7].udp droppedPkBadChecksum:vector(count) ETV
attr interpolationmode none
attr recordingmode vector(count)
attr source packetDropReasonIsIncorrectlyReceived(packetDropped)
attr title "packets dropped (checksum error), count"
vector 27 Network.bunkerhost[8].udp passedUpPk:vector(count) ETV
attr interpolationmode none
attr recordingmode vector(count)
attr source packetSentToUpper
attr title "packets passed up, count"
vector 28 Network.bunkerhost[8].udp droppedPkWrongPort:vector(count) ETV
attr interpolationmode none
attr recordingmode vector(count)
attr source packetDropReasonIsNoPortFound(packetDropped)
attr title "packets dropped (wrong port), count"
vector 29 Network.bunkerhost[8].udp droppedPkBadChecksum:vector(count) ETV
attr interpolationmode none
attr recordingmode vector(count)
attr source packetDropReasonIsIncorrectlyReceived(packetDropped)
attr title "packets dropped (checksum error), count"
vector 30 Network.bunkerhost[9].udp passedUpPk:vector(count) ETV
attr interpolationmode none
attr recordingmode vector(count)
attr source packetSentToUpper
attr title "packets passed up, count"
vector 31 Network.bunkerhost[9].udp droppedPkWrongPort:vector(count) ETV
attr interpolationmode none
attr recordingmode vector(count)
attr source packetDropReasonIsNoPortFound(packetDropped)
attr title "packets dropped (wrong port), count"
vector 32 Network.bunkerhost[9].udp droppedPkBadChecksum:vector(count) ETV
attr interpolationmode none
attr recordingmode vector(count)
attr source packetDropReasonIsIncorrectlyReceived(packetDropped)
attr title "packets dropped (checksum error), count"
vector 33 Network.bunkerhost[10].udp passedUpPk:vector(count) ETV
attr interpolationmode none
attr recordingmode vector(count)
attr source packetSentToUpper
attr title "packets passed up, count"
vector 34 Network.bunkerhost[10].udp droppedPkWrongPort:vector(count) ETV
attr interpolationmode none
attr recordingmode vector(count)
attr source packetDropReasonIsNoPortFound(packetDropped)
attr title "packets dropped (wrong port), count"
vector 35 Network.bunkerhost[10].udp droppedPkBadChecksum:vector(count) ETV
attr interpolationmode none
attr recordingmode vector(count)
attr source packetDropReasonIsIncorrectlyReceived(packetDropped)
attr title "packets dropped (checksum error), count"
vector 36 Network.bunkerhost[11].udp passedUpPk:vector(count) ETV
attr interpolationmode none
attr recordingmode vector(count)
attr source packetSentToUpper
attr title "packets passed up, count"
vector 37 Network.bunkerhost[11].udp droppedPkWrongPort:vector(count) ETV
attr interpolationmode none
attr recordingmode vector(count)
attr source packetDropReasonIsNoPortFound(packetDropped)
attr title "packets dropped (wrong port), count"
vector 38 Network.bunkerhost[11].udp droppedPkBadChecksum:vector(count) ETV
attr interpolationmode none
attr recordingmode vector(count)
attr source packetDropReasonIsIncorrectlyReceived(packetDropped)
attr title "packets dropped (checksum error), count"
vector 39 Network.bunkerhost[2].app[0] throughput:vector ETV
attr recordingmode vector
attr source throughput(packetSent)
attr title throughput
attr unit bps
vector 40 Network.bunkerhost[2].app[0] packetSent:vector(packetBytes) ETV
attr interpolationmode none
attr recordingmode vector(packetBytes)
attr source packetSent
attr title "packets sent, packetBytes"
vector 41 Network.bunkerhost[10].app[0] throughput:vector ETV
attr recordingmode vector
attr source throughput(packetSent)
attr title throughput
attr unit bps
vector 42 Network.bunkerhost[10].app[0] packetSent:vector(packetBytes) ETV
attr interpolationmode none
attr recordingmode vector(packetBytes)
attr source packetSent
attr title "packets sent, packetBytes"
vector 43 Network.bunkerhost[2].udp packetSent:vector(packetBytes) ETV
attr interpolationmode none
attr recordingmode vector(packetBytes)
attr source packetSent
attr title "packets sent, packetBytes"
vector 44 Network.bunkerhost[10].udp packetSent:vector(packetBytes) ETV
attr interpolationmode none
attr recordingmode vector(packetBytes)
attr source packetSent
attr title "packets sent, packetBytes"
vector 45 Network.bunkerhost[2].ethernet encapPk:vector(packetBytes) ETV
attr interpolationmode none
attr recordingmode vector(packetBytes)
attr source encapPk
attr title "packets encapsulated, packetBytes"
vector 46 Network.bunkerhost[10].ethernet encapPk:vector(packetBytes) ETV
attr interpolationmode none
attr recordingmode vector(packetBytes)
attr source encapPk
attr title "packets encapsulated, packetBytes"
vector 47 Network.bunkerhost[2].eth[0].queue incomingPacketLengths:vector ETV
attr interpolationmode none
attr recordingmode vector
attr source packetLength(packetPushStarted)
attr title "incoming packet lengths"
attr unit b
vector 48 Network.bunkerhost[2].eth[0].queue incomingDataRate:vector ETV
attr interpolationmode linear
attr recordingmode vector
attr source throughput(packetPushStarted)
attr title "incoming datarate"
attr unit bps
vector 49 Network.bunkerhost[2].eth[0].queue queueingTime:vector ETV
attr interpolationmode none
attr recordingmode vector
attr source queueingTime(packetPulled)
attr title "queueing times"
attr unit s
vector 50 Network.bunkerhost[2].eth[0].queue outgoingPacketLengths:vector ETV
attr interpolationmode none
attr recordingmode vector
attr source packetLength(packetPulled)
attr title "outgoing packet lengths"
attr unit b
vector 51 Network.bunkerhost[2].eth[0].queue outgoingDataRate:vector ETV
attr interpolationmode linear
attr recordingmode vector
attr source throughput(packetPulled)
attr title "outgoing datarate"
attr unit bps
vector 52 Network.bunkerhost[2].eth[0].mac packetReceivedFromUpper:vector(packetBytes) ETV
attr interpolationmode none
attr recordingmode vector(packetBytes)
attr source packetReceivedFromUpper
attr title "packet bytes from higher layer, packetBytes"
vector 53 Network.bunkerhost[2].eth[0].queue queueLength:vector ETV
attr autoWarmupFilter false
attr interpolationmode sample-hold
attr recordingmode vector
attr source "warmup(atomic(constant0(packetPushEnded) + count(packetPushStarted) - count(packetPulled) - count(packetRemoved) - count(packetDropped)))"
attr title "queue length"
attr unit pk
vector 54 Network.bunkerhost[2].eth[0].queue queueBitLength:vector ETV
attr autoWarmupFilter false
attr interpolationmode sample-hold
attr recordingmode vector
attr source "warmup(atomic(constant0(packetPushEnded) + sum(packetLength(packetPushStarted)) - sum(packetLength(packetPulled)) - sum(packetLength(packetRemoved)) - sum(packetLength(packetDropped))))"
attr title "queue bit length"
attr unit b
vector 55 Network.bunkerhost[10].eth[0].queue incomingPacketLengths:vector ETV
attr interpolationmode none
attr recordingmode vector
attr source packetLength(packetPushStarted)
attr title "incoming packet lengths"
attr unit b
vector 56 Network.bunkerhost[10].eth[0].queue incomingDataRate:vector ETV
attr interpolationmode linear
attr recordingmode vector
attr source throughput(packetPushStarted)
attr title "incoming datarate"
attr unit bps
vector 57 Network.bunkerhost[10].eth[0].queue queueingTime:vector ETV
attr interpolationmode none
attr recordingmode vector
attr source queueingTime(packetPulled)
attr title "queueing times"
attr unit s
vector 58 Network.bunkerhost[10].eth[0].queue outgoingPacketLengths:vector ETV
attr interpolationmode none
attr recordingmode vector
attr source packetLength(packetPulled)
attr title "outgoing packet lengths"
attr unit b
vector 59 Network.bunkerhost[10].eth[0].queue outgoingDataRate:vector ETV
attr interpolationmode linear
attr recordingmode vector
attr source throughput(packetPulled)
attr title "outgoing datarate"
attr unit bps
vector 60 Network.bunkerhost[10].eth[0].mac packetReceivedFromUpper:vector(packetBytes) ETV
attr interpolationmode none
attr recordingmode vector(packetBytes)
attr source packetReceivedFromUpper
attr title "packet bytes from higher layer, packetBytes"
vector 61 Network.bunkerhost[10].eth[0].queue queueLength:vector ETV
attr autoWarmupFilter false
attr interpolationmode sample-hold
attr recordingmode vector
attr source "warmup(atomic(constant0(packetPushEnded) + count(packetPushStarted) - count(packetPulled) - count(packetRemoved) - count(packetDropped)))"
attr title "queue length"
attr unit pk
vector 62 Network.bunkerhost[10].eth[0].queue queueBitLength:vector ETV
attr autoWarmupFilter false
attr interpolationmode sample-hold
attr recordingmode vector
attr source "warmup(atomic(constant0(packetPushEnded) + sum(packetLength(packetPushStarted)) - sum(packetLength(packetPulled)) - sum(packetLength(packetRemoved)) - sum(packetLength(packetDropped))))"
attr title "queue bit length"
attr unit b
vector 63 Network.bunkerhost[2].eth[0].mac txPk:vector(packetBytes) ETV
attr interpolationmode none
attr recordingmode vector(packetBytes)
attr source packetSentToLower
attr title "packets transmitted, packetBytes"
vector 64 Network.bunkerhost[10].eth[0].mac txPk:vector(packetBytes) ETV
attr interpolationmode none
attr recordingmode vector(packetBytes)
attr source packetSentToLower
attr title "packets transmitted, packetBytes"
vector 65 Network.bunkerrouter[0].eth[3].mac rxPkOk:vector(packetBytes) ETV
attr interpolationmode none
attr recordingmode vector(packetBytes)
attr source rxPkOk
attr title "packets received OK, packetBytes"
vector 66 Network.bunkerrouter[0].eth[3].mac passedUpPk:vector(packetBytes) ETV
attr interpolationmode none
attr recordingmode vector(packetBytes)
attr source packetSentToUpper
attr title "packets passed to higher layer, packetBytes"
vector 67 Network.bunkerrouter[2].eth[3].mac rxPkOk:vector(packetBytes) ETV
attr interpolationmode none
attr recordingmode vector(packetBytes)
attr source rxPkOk
attr title "packets received OK, packetBytes"
vector 68 Network.bunkerrouter[2].eth[3].mac passedUpPk:vector(packetBytes) ETV
attr interpolationmode none
attr recordingmode vector(packetBytes)
attr source packetSentToUpper
attr title "packets passed to higher layer, packetBytes"
vector 69 Network.bunkerrouter[0].ethernet decapPk:vector(packetBytes) ETV
attr interpolationmode none
attr recordingmode vector(packetBytes)
attr source decapPk
attr title "packets decapsulated, packetBytes"
vector 70 Network.bunkerrouter[2].ethernet decapPk:vector(packetBytes) ETV
attr interpolationmode none
attr recordingmode vector(packetBytes)
attr source decapPk
attr title "packets decapsulated, packetBytes"
vector 71 Network.bunkerrouter[0].ethernet encapPk:vector(packetBytes) ETV
attr interpolationmode none
attr recordingmode vector(packetBytes)
attr source encapPk
attr title "packets encapsulated, packetBytes"
vector 72 Network.bunkerrouter[2].ethernet encapPk:vector(packetBytes) ETV
attr interpolationmode none
attr recordingmode vector(packetBytes)
attr source encapPk
attr title "packets encapsulated, packetBytes"
vector 73 Network.bunkerrouter[0].eth[0].queue incomingPacketLengths:vector ETV
attr interpolationmode none
attr recordingmode vector
attr source packetLength(packetPushStarted)
attr title "incoming packet lengths"
attr unit b
vector 74 Network.bunkerrouter[0].eth[0].queue incomingDataRate:vector ETV
attr interpolationmode linear
attr recordingmode vector
attr source throughput(packetPushStarted)
attr title "incoming datarate"
attr unit bps
vector 75 Network.bunkerrouter[0].eth[0].queue queueingTime:vector ETV
attr interpolationmode none
attr recordingmode vector
attr source queueingTime(packetPulled)
attr title "queueing times"
attr unit s
vector 76 Network.bunkerrouter[0].eth[0].queue outgoingPacketLengths:vector ETV
attr interpolationmode none
attr recordingmode vector
attr source packetLength(packetPulled)
attr title "outgoing packet lengths"
attr unit b
vector 77 Network.bunkerrouter[0].eth[0].queue outgoingDataRate:vector ETV
attr interpolationmode linear
attr recordingmode vector
attr source throughput(packetPulled)
attr title "outgoing datarate"
attr unit bps
vector 78 Network.bunkerrouter[0].eth[0].mac packetReceivedFromUpper:vector(packetBytes) ETV
attr interpolationmode none
attr recordingmode vector(packetBytes)
attr source packetReceivedFromUpper
attr title "packet bytes from higher layer, packetBytes"
vector 79 Network.bunkerrouter[0].eth[0].queue queueLength:vector ETV
attr autoWarmupFilter false
attr interpolationmode sample-hold
attr recordingmode vector
attr source "warmup(atomic(constant0(packetPushEnded) + count(packetPushStarted) - count(packetPulled) - count(packetRemoved) - count(packetDropped)))"
attr title "queue length"
attr unit pk
vector 80 Network.bunkerrouter[0].eth[0].queue queueBitLength:vector ETV
attr autoWarmupFilter false
attr interpolationmode sample-hold
attr recordingmode vector
attr source "warmup(atomic(constant0(packetPushEnded) + sum(packetLength(packetPushStarted)) - sum(packetLength(packetPulled)) - sum(packetLength(packetRemoved)) - sum(packetLength(packetDropped))))"
attr title "queue bit length"
attr unit b
vector 81 Network.bunkerrouter[2].eth[0].queue incomingPacketLengths:vector ETV
attr interpolationmode none
attr recordingmode vector
attr source packetLength(packetPushStarted)
attr title "incoming packet lengths"
attr unit b
vector 82 Network.bunkerrouter[2].eth[0].queue incomingDataRate:vector ETV
attr interpolationmode linear
attr recordingmode vector
attr source throughput(packetPushStarted)
attr title "incoming datarate"
attr unit bps
vector 83 Network.bunkerrouter[2].eth[0].queue queueingTime:vector ETV
attr interpolationmode none
attr recordingmode vector
attr source queueingTime(packetPulled)
attr title "queueing times"
attr unit s
vector 84 Network.bunkerrouter[2].eth[0].queue outgoingPacketLengths:vector ETV
attr interpolationmode none
attr recordingmode vector
attr source packetLength(packetPulled)
attr title "outgoing packet lengths"
attr unit b
vector 85 Network.bunkerrouter[2].eth[0].queue outgoingDataRate:vector ETV
attr interpolationmode linear
attr recordingmode vector
attr source throughput(packetPulled)
attr title "outgoing datarate"
attr unit bps
vector 86 Network.bunkerrouter[2].eth[0].mac packetReceivedFromUpper:vector(packetBytes) ETV
attr interpolationmode none
attr recordingmode vector(packetBytes)
attr source packetReceivedFromUpper
attr title "packet bytes from higher layer, packetBytes"
vector 87 Network.bunkerrouter[2].eth[0].queue queueLength:vector ETV
attr autoWarmupFilter false
attr interpolationmode sample-hold
attr recordingmode vector
attr source "warmup(atomic(constant0(packetPushEnded) + count(packetPushStarted) - count(packetPulled) - count(packetRemoved) - count(packetDropped)))"
attr title "queue length"
attr unit pk
vector 88 Network.bunkerrouter[2].eth[0].queue queueBitLength:vector ETV
attr autoWarmupFilter false
attr interpolationmode sample-hold
attr recordingmode vector
attr source "warmup(atomic(constant0(packetPushEnded) + sum(packetLength(packetPushStarted)) - sum(packetLength(packetPulled)) - sum(packetLength(packetRemoved)) - sum(packetLength(packetDropped))))"
attr title "queue bit length"
attr unit b
vector 89 Network.bunkerrouter[0].eth[0].mac txPk:vector(packetBytes) ETV
attr interpolationmode none
attr recordingmode vector(packetBytes)
attr source packetSentToLower
attr title "packets transmitted, packetBytes"
vector 90 Network.bunkerrouter[2].eth[0].mac txPk:vector(packetBytes) ETV
attr interpolationmode none
attr recordingmode vector(packetBytes)
attr source packetSentToLower
attr title "packets transmitted, packetBytes"
vector 91 Network.mainrouter.eth[1].mac rxPkOk:vector(packetBytes) ETV
attr interpolationmode none
attr recordingmode vector(packetBytes)
attr source rxPkOk
attr title "packets received OK, packetBytes"
vector 92 Network.mainrouter.eth[1].mac passedUpPk:vector(packetBytes) ETV
attr interpolationmode none
attr recordingmode vector(packetBytes)
attr source packetSentToUpper
attr title "packets passed to higher layer, packetBytes"
vector 93 Network.mainrouter.eth[3].mac rxPkOk:vector(packetBytes) ETV
attr interpolationmode none
attr recordingmode vector(packetBytes)
attr source rxPkOk
attr title "packets received OK, packetBytes"
vector 94 Network.mainrouter.eth[3].mac passedUpPk:vector(packetBytes) ETV
attr interpolationmode none
attr recordingmode vector(packetBytes)
attr source packetSentToUpper
attr title "packets passed to higher layer, packetBytes"
vector 95 Network.mainrouter.ethernet decapPk:vector(packetBytes) ETV
attr interpolationmode none
attr recordingmode vector(packetBytes)
attr source decapPk
attr title "packets decapsulated, packetBytes"
vector 96 Network.mainrouter.ethernet encapPk:vector(packetBytes) ETV
attr interpolationmode none
attr recordingmode vector(packetBytes)
attr source encapPk
attr title "packets encapsulated, packetBytes"
vector 97 Network.mainrouter.eth[0].queue incomingPacketLengths:vector ETV
attr interpolationmode none
attr recordingmode vector
attr source packetLength(packetPushStarted)
attr title "incoming packet lengths"
attr unit b
vector 98 Network.mainrouter.eth[0].queue incomingDataRate:vector ETV
attr interpolationmode linear
attr recordingmode vector
attr source throughput(packetPushStarted)
attr title "incoming datarate"
attr unit bps
vector 99 Network.mainrouter.eth[0].queue queueingTime:vector ETV
attr interpolationmode none
attr recordingmode vector
attr source queueingTime(packetPulled)
attr title "queueing times"
attr unit s
vector 100 Network.mainrouter.eth[0].queue outgoingPacketLengths:vector ETV
attr interpolationmode none
attr recordingmode vector
attr source packetLength(packetPulled)
attr title "outgoing packet lengths"
attr unit b
vector 101 Network.mainrouter.eth[0].queue outgoingDataRate:vector ETV
attr interpolationmode linear
attr recordingmode vector
attr source throughput(packetPulled)
attr title "outgoing datarate"
attr unit bps
vector 102 Network.mainrouter.eth[0].mac packetReceivedFromUpper:vector(packetBytes) ETV
attr interpolationmode none
attr recordingmode vector(packetBytes)
attr source packetReceivedFromUpper
attr title "packet bytes from higher layer, packetBytes"
vector 103 Network.mainrouter.eth[0].queue queueLength:vector ETV
attr autoWarmupFilter false
attr interpolationmode sample-hold
attr recordingmode vector
attr source "warmup(atomic(constant0(packetPushEnded) + count(packetPushStarted) - count(packetPulled) - count(packetRemoved) - count(packetDropped)))"
attr title "queue length"
attr unit pk
vector 104 Network.mainrouter.eth[0].queue queueBitLength:vector ETV
attr autoWarmupFilter false
attr interpolationmode sample-hold
attr recordingmode vector
attr source "warmup(atomic(constant0(packetPushEnded) + sum(packetLength(packetPushStarted)) - sum(packetLength(packetPulled)) - sum(packetLength(packetRemoved)) - sum(packetLength(packetDropped))))"
attr title "queue bit length"
attr unit b
vector 105 Network.mainrouter.eth[0].mac txPk:vector(packetBytes) ETV
attr interpolationmode none
attr recordingmode vector(packetBytes)
attr source packetSentToLower
attr title "packets transmitted, packetBytes"
vector 106 Network.server.eth[0].mac rxPkOk:vector(packetBytes) ETV
attr interpolationmode none
attr recordingmode vector(packetBytes)
attr source rxPkOk
attr title "packets received OK, packetBytes"
vector 107 Network.server.eth[0].mac passedUpPk:vector(packetBytes) ETV
attr interpolationmode none
attr recordingmode vector(packetBytes)
attr source packetSentToUpper
attr title "packets passed to higher layer, packetBytes"
vector 108 Network.server.ethernet decapPk:vector(packetBytes) ETV
attr interpolationmode none
attr recordingmode vector(packetBytes)
attr source decapPk
attr title "packets decapsulated, packetBytes"
vector 109 Network.server.udp packetReceived:vector(packetBytes) ETV
attr interpolationmode none
attr recordingmode vector(packetBytes)
attr source packetReceived
attr title "packets received, packetBytes"
vector 110 Network.server.app[0] endtoenddelay:vector ETV
attr interpolationmode linear
attr recordingmode vector
attr source endtoenddelay
attr title "End-to-end Delay"
vector 111 Network.server.app[0] packetReceived:vector(packetBytes) ETV
attr interpolationmode none
attr recordingmode vector(packetBytes)
attr source packetReceived
attr title "packets received, packetBytes"
vector 112 Network.server.app[0] rcvdPkLifetime:vector ETV
attr interpolationmode none
attr recordingmode vector
attr source dataAge(packetReceived)
attr title "received packet lifetime"
attr unit s
vector 113 Network.bunkerhost[6].app[1] throughput:vector ETV
attr recordingmode vector
attr source throughput(packetSent)
attr title throughput
attr unit bps
vector 114 Network.bunkerhost[6].app[1] packetSent:vector(packetBytes) ETV
attr interpolationmode none
attr recordingmode vector(packetBytes)
attr source packetSent
attr title "packets sent, packetBytes"
vector 115 Network.bunkerhost[6].udp packetSent:vector(packetBytes) ETV
attr interpolationmode none
attr recordingmode vector(packetBytes)
attr source packetSent
attr title "packets sent, packetBytes"
vector 116 Network.bunkerhost[6].ethernet encapPk:vector(packetBytes) ETV
attr interpolationmode none
attr recordingmode vector(packetBytes)
attr source encapPk
attr title "packets encapsulated, packetBytes"
vector 117 Network.bunkerhost[6].eth[0].queue incomingPacketLengths:vector ETV
attr interpolationmode none
attr recordingmode vector
attr source packetLength(packetPushStarted)
attr title "incoming packet lengths"
attr unit b
vector 118 Network.bunkerhost[6].eth[0].queue incomingDataRate:vector ETV
attr interpolationmode linear
attr recordingmode vector
attr source throughput(packetPushStarted)
attr title "incoming datarate"
attr unit bps
vector 119 Network.bunkerhost[6].eth[0].queue queueingTime:vector ETV
attr interpolationmode none
attr recordingmode vector
attr source queueingTime(packetPulled)
attr title "queueing times"
attr unit s
vector 120 Network.bunkerhost[6].eth[0].queue outgoingPacketLengths:vector ETV
attr interpolationmode none
attr recordingmode vector
attr source packetLength(packetPulled)
attr title "outgoing packet lengths"
attr unit b
vector 121 Network.bunkerhost[6].eth[0].queue outgoingDataRate:vector ETV
attr interpolationmode linear
attr recordingmode vector
attr source throughput(packetPulled)
attr title "outgoing datarate"
attr unit bps
vector 122 Network.bunkerhost[6].eth[0].mac packetReceivedFromUpper:vector(packetBytes) ETV
attr interpolationmode none
attr recordingmode vector(packetBytes)
attr source packetReceivedFromUpper
attr title "packet bytes from higher layer, packetBytes"
vector 123 Network.bunkerhost[6].eth[0].queue queueLength:vector ETV
attr autoWarmupFilter false
attr interpolationmode sample-hold
attr recordingmode vector
attr source "warmup(atomic(constant0(packetPushEnded) + count(packetPushStarted) - count(packetPulled) - count(packetRemoved) - count(packetDropped)))"
attr title "queue length"
attr unit pk
vector 124 Network.bunkerhost[6].eth[0].queue queueBitLength:vector ETV
attr autoWarmupFilter false
attr interpolationmode sample-hold
attr recordingmode vector
attr source "warmup(atomic(constant0(packetPushEnded) + sum(packetLength(packetPushStarted)) - sum(packetLength(packetPulled)) - sum(packetLength(packetRemoved)) - sum(packetLength(packetDropped))))"
attr title "queue bit length"
attr unit b
vector 125 Network.bunkerhost[6].eth[0].mac txPk:vector(packetBytes) ETV
attr interpolationmode none
attr recordingmode vector(packetBytes)
attr source packetSentToLower
attr title "packets transmitted, packetBytes"
vector 126 Network.bunkerrouter[1].eth[3].mac rxPkOk:vector(packetBytes) ETV
attr interpolationmode none
attr recordingmode vector(packetBytes)
attr source rxPkOk
attr title "packets received OK, packetBytes"
vector 127 Network.bunkerrouter[1].eth[3].mac passedUpPk:vector(packetBytes) ETV
attr interpolationmode none
attr recordingmode vector(packetBytes)
attr source packetSentToUpper
attr title "packets passed to higher layer, packetBytes"
vector 128 Network.bunkerrouter[1].ethernet decapPk:vector(packetBytes) ETV
attr interpolationmode none
attr recordingmode vector(packetBytes)
attr source decapPk
attr title "packets decapsulated, packetBytes"
vector 129 Network.bunkerrouter[1].ethernet encapPk:vector(packetBytes) ETV
attr interpolationmode none
attr recordingmode vector(packetBytes)
attr source encapPk
attr title "packets encapsulated, packetBytes"
vector 130 Network.bunkerrouter[1].eth[0].queue incomingPacketLengths:vector ETV
attr interpolationmode none
attr recordingmode vector
attr source packetLength(packetPushStarted)
attr title "incoming packet lengths"
attr unit b
vector 131 Network.bunkerrouter[1].eth[0].queue incomingDataRate:vector ETV
attr interpolationmode linear
attr recordingmode vector
attr source throughput(packetPushStarted)
attr title "incoming datarate"
attr unit bps
vector 132 Network.bunkerrouter[1].eth[0].queue queueingTime:vector ETV
attr interpolationmode none
attr recordingmode vector
attr source queueingTime(packetPulled)
attr title "queueing times"
attr unit s
vector 133 Network.bunkerrouter[1].eth[0].queue outgoingPacketLengths:vector ETV
attr interpolationmode none
attr recordingmode vector
attr source packetLength(packetPulled)
attr title "outgoing packet lengths"
attr unit b
vector 134 Network.bunkerrouter[1].eth[0].queue outgoingDataRate:vector ETV
attr interpolationmode linear
attr recordingmode vector
attr source throughput(packetPulled)
attr title "outgoing datarate"
attr unit bps
vector 135 Network.bunkerrouter[1].eth[0].mac packetReceivedFromUpper:vector(packetBytes) ETV
attr interpolationmode none
attr recordingmode vector(packetBytes)
attr source packetReceivedFromUpper
attr title "packet bytes from higher layer, packetBytes"
vector 136 Network.bunkerrouter[1].eth[0].queue queueLength:vector ETV
attr autoWarmupFilter false
attr interpolationmode sample-hold
attr recordingmode vector
attr source "warmup(atomic(constant0(packetPushEnded) + count(packetPushStarted) - count(packetPulled) - count(packetRemoved) - count(packetDropped)))"
attr title "queue length"
attr unit pk
vector 137 Network.bunkerrouter[1].eth[0].queue queueBitLength:vector ETV
attr autoWarmupFilter false
attr interpolationmode sample-hold
attr recordingmode vector
attr source "warmup(atomic(constant0(packetPushEnded) + sum(packetLength(packetPushStarted)) - sum(packetLength(packetPulled)) - sum(packetLength(packetRemoved)) - sum(packetLength(packetDropped))))"
attr title "queue bit length"
attr unit b
vector 138 Network.bunkerrouter[1].eth[0].mac txPk:vector(packetBytes) ETV
attr interpolationmode none
attr recordingmode vector(packetBytes)
attr source packetSentToLower
attr title "packets transmitted, packetBytes"
vector 139 Network.mainrouter.eth[2].mac rxPkOk:vector(packetBytes) ETV
attr interpolationmode none
attr recordingmode vector(packetBytes)
attr source rxPkOk
attr title "packets received OK, packetBytes"
vector 140 Network.mainrouter.eth[2].mac passedUpPk:vector(packetBytes) ETV
attr interpolationmode none
attr recordingmode vector(packetBytes)
attr source packetSentToUpper
attr title "packets passed to higher layer, packetBytes"
vector 141 Network.server.app[0] unsuccessfulLookup:vector ETV
attr interpolationmode linear
attr recordingmode vector
attr source unsuccessfulLookup
attr title "Unsuccessful Lookup Count"
vector 142 Network.server.app[0] throughput:vector ETV
attr recordingmode vector
attr source throughput(packetSent)
attr title throughput
attr unit bps
vector 143 Network.server.app[0] packetSent:vector(packetBytes) ETV
attr interpolationmode none
attr recordingmode vector(packetBytes)
attr source packetSent
attr title "packets sent, packetBytes"
vector 144 Network.server.udp packetSent:vector(packetBytes) ETV
attr interpolationmode none
attr recordingmode vector(packetBytes)
attr source packetSent
attr title "packets sent, packetBytes"
vector 145 Network.server.ethernet encapPk:vector(packetBytes) ETV
attr interpolationmode none
attr recordingmode vector(packetBytes)
attr source encapPk
attr title "packets encapsulated, packetBytes"
vector 146 Network.server.eth[0].queue incomingPacketLengths:vector ETV
attr interpolationmode none
attr recordingmode vector
attr source packetLength(packetPushStarted)
attr title "incoming packet lengths"
attr unit b
vector 147 Network.server.eth[0].queue incomingDataRate:vector ETV
attr interpolationmode linear
attr recordingmode vector
attr source throughput(packetPushStarted)
attr title "incoming datarate"
attr unit bps
vector 148 Network.server.eth[0].queue queueingTime:vector ETV
attr interpolationmode none
attr recordingmode vector
attr source queueingTime(packetPulled)
attr title "queueing times"
attr unit s
vector 149 Network.server.eth[0].queue outgoingPacketLengths:vector ETV
attr interpolationmode none
attr recordingmode vector
attr source packetLength(packetPulled)
attr title "outgoing packet lengths"
attr unit b
vector 150 Network.server.eth[0].queue outgoingDataRate:vector ETV
attr interpolationmode linear
attr recordingmode vector
attr source throughput(packetPulled)
attr title "outgoing datarate"
attr unit bps
vector 151 Network.server.eth[0].mac packetReceivedFromUpper:vector(packetBytes) ETV
attr interpolationmode none
attr recordingmode vector(packetBytes)
attr source packetReceivedFromUpper
attr title "packet bytes from higher layer, packetBytes"
vector 152 Network.server.eth[0].queue queueLength:vector ETV
attr autoWarmupFilter false
attr interpolationmode sample-hold
attr recordingmode vector
attr source "warmup(atomic(constant0(packetPushEnded) + count(packetPushStarted) - count(packetPulled) - count(packetRemoved) - count(packetDropped)))"
attr title "queue length"
attr unit pk
vector 153 Network.server.eth[0].queue queueBitLength:vector ETV
attr autoWarmupFilter false
attr interpolationmode sample-hold
attr recordingmode vector
attr source "warmup(atomic(constant0(packetPushEnded) + sum(packetLength(packetPushStarted)) - sum(packetLength(packetPulled)) - sum(packetLength(packetRemoved)) - sum(packetLength(packetDropped))))"
attr title "queue bit length"
attr unit b
vector 154 Network.server.eth[0].mac txPk:vector(packetBytes) ETV
attr interpolationmode none
attr recordingmode vector(packetBytes)
attr source packetSentToLower
attr title "packets transmitted, packetBytes"
vector 155 Network.mainrouter.eth[0].mac rxPkOk:vector(packetBytes) ETV
attr interpolationmode none
attr recordingmode vector(packetBytes)
attr source rxPkOk
attr title "packets received OK, packetBytes"
vector 156 Network.mainrouter.eth[0].mac passedUpPk:vector(packetBytes) ETV
attr interpolationmode none
attr recordingmode vector(packetBytes)
attr source packetSentToUpper
attr title "packets passed to higher layer, packetBytes"
vector 157 Network.mainrouter.eth[2].queue incomingPacketLengths:vector ETV
attr interpolationmode none
attr recordingmode vector
attr source packetLength(packetPushStarted)
attr title "incoming packet lengths"
attr unit b
vector 158 Network.mainrouter.eth[2].queue incomingDataRate:vector ETV
attr interpolationmode linear
attr recordingmode vector
attr source throughput(packetPushStarted)
attr title "incoming datarate"
attr unit bps
vector 159 Network.mainrouter.eth[2].queue queueingTime:vector ETV
attr interpolationmode none
attr recordingmode vector
attr source queueingTime(packetPulled)
attr title "queueing times"
attr unit s
vector 160 Network.mainrouter.eth[2].queue outgoingPacketLengths:vector ETV
attr interpolationmode none
attr recordingmode vector
attr source packetLength(packetPulled)
attr title "outgoing packet lengths"
attr unit b
vector 161 Network.mainrouter.eth[2].queue outgoingDataRate:vector ETV
attr interpolationmode linear
attr recordingmode vector
attr source throughput(packetPulled)
attr title "outgoing datarate"
attr unit bps
vector 162 Network.mainrouter.eth[2].mac packetReceivedFromUpper:vector(packetBytes) ETV
attr interpolationmode none
attr recordingmode vector(packetBytes)
attr source packetReceivedFromUpper
attr title "packet bytes from higher layer, packetBytes"
vector 163 Network.mainrouter.eth[2].queue queueLength:vector ETV
attr autoWarmupFilter false
attr interpolationmode sample-hold
attr recordingmode vector
attr source "warmup(atomic(constant0(packetPushEnded) + count(packetPushStarted) - count(packetPulled) - count(packetRemoved) - count(packetDropped)))"
attr title "queue length"
attr unit pk
vector 164 Network.mainrouter.eth[2].queue queueBitLength:vector ETV
attr autoWarmupFilter false
attr interpolationmode sample-hold
attr recordingmode vector
attr source "warmup(atomic(constant0(packetPushEnded) + sum(packetLength(packetPushStarted)) - sum(packetLength(packetPulled)) - sum(packetLength(packetRemoved)) - sum(packetLength(packetDropped))))"
attr title "queue bit length"
attr unit b
vector 165 Network.mainrouter.eth[2].mac txPk:vector(packetBytes) ETV
attr interpolationmode none
attr recordingmode vector(packetBytes)
attr source packetSentToLower
attr title "packets transmitted, packetBytes"
vector 166 Network.bunkerrouter[1].eth[0].mac rxPkOk:vector(packetBytes) ETV
attr interpolationmode none
attr recordingmode vector(packetBytes)
attr source rxPkOk
attr title "packets received OK, packetBytes"
vector 167 Network.bunkerrouter[1].eth[0].mac passedUpPk:vector(packetBytes) ETV
attr interpolationmode none
attr recordingmode vector(packetBytes)
attr source packetSentToUpper
attr title "packets passed to higher layer, packetBytes"
vector 168 Network.bunkerrouter[1].eth[3].queue incomingPacketLengths:vector ETV
attr interpolationmode none
attr recordingmode vector
attr source packetLength(packetPushStarted)
attr title "incoming packet lengths"
attr unit b
vector 169 Network.bunkerrouter[1].eth[3].queue incomingDataRate:vector ETV
attr interpolationmode linear
attr recordingmode vector
attr source throughput(packetPushStarted)
attr title "incoming datarate"
attr unit bps
vector 170 Network.bunkerrouter[1].eth[3].queue queueingTime:vector ETV
attr interpolationmode none
attr recordingmode vector
attr source queueingTime(packetPulled)
attr title "queueing times"
attr unit s
vector 171 Network.bunkerrouter[1].eth[3].queue outgoingPacketLengths:vector ETV
attr interpolationmode none
attr recordingmode vector
attr source packetLength(packetPulled)
attr title "outgoing packet lengths"
attr unit b
vector 172 Network.bunkerrouter[1].eth[3].queue outgoingDataRate:vector ETV
attr interpolationmode linear
attr recordingmode vector
attr source throughput(packetPulled)
attr title "outgoing datarate"
attr unit bps
vector 173 Network.bunkerrouter[1].eth[3].mac packetReceivedFromUpper:vector(packetBytes) ETV
attr interpolationmode none
attr recordingmode vector(packetBytes)
attr source packetReceivedFromUpper
attr title "packet bytes from higher layer, packetBytes"
vector 174 Network.bunkerrouter[1].eth[3].queue queueLength:vector ETV
attr autoWarmupFilter false
attr interpolationmode sample-hold
attr recordingmode vector
attr source "warmup(atomic(constant0(packetPushEnded) + count(packetPushStarted) - count(packetPulled) - count(packetRemoved) - count(packetDropped)))"
attr title "queue length"
attr unit pk
vector 175 Network.bunkerrouter[1].eth[3].queue queueBitLength:vector ETV
attr autoWarmupFilter false
attr interpolationmode sample-hold
attr recordingmode vector
attr source "warmup(atomic(constant0(packetPushEnded) + sum(packetLength(packetPushStarted)) - sum(packetLength(packetPulled)) - sum(packetLength(packetRemoved)) - sum(packetLength(packetDropped))))"
attr title "queue bit length"
attr unit b
vector 176 Network.bunkerrouter[1].eth[3].mac txPk:vector(packetBytes) ETV
attr interpolationmode none
attr recordingmode vector(packetBytes)
attr source packetSentToLower
attr title "packets transmitted, packetBytes"
vector 177 Network.bunkerhost[6].eth[0].mac rxPkOk:vector(packetBytes) ETV
attr interpolationmode none
attr recordingmode vector(packetBytes)
attr source rxPkOk
attr title "packets received OK, packetBytes"
vector 178 Network.bunkerhost[6].eth[0].mac passedUpPk:vector(packetBytes) ETV
attr interpolationmode none
attr recordingmode vector(packetBytes)
attr source packetSentToUpper
attr title "packets passed to higher layer, packetBytes"
vector 179 Network.bunkerhost[6].ethernet decapPk:vector(packetBytes) ETV
attr interpolationmode none
attr recordingmode vector(packetBytes)
attr source decapPk
attr title "packets decapsulated, packetBytes"
vector 180 Network.bunkerhost[6].udp packetReceived:vector(packetBytes) ETV
attr interpolationmode none
attr recordingmode vector(packetBytes)
attr source packetReceived
attr title "packets received, packetBytes"
vector 181 Network.bunkerhost[6].app[1] endtoenddelay:vector ETV
attr interpolationmode linear
attr recordingmode vector
attr source endtoenddelay
attr title "End-to-end Delay"
vector 182 Network.bunkerhost[6].app[1] packetReceived:vector(packetBytes) ETV
attr interpolationmode none
attr recordingmode vector(packetBytes)
attr source packetReceived
attr title "packets received, packetBytes"
vector 183 Network.bunkerhost[0].app[1] throughput:vector ETV
attr recordingmode vector
attr source throughput(packetSent)
attr title throughput
attr unit bps
vector 184 Network.bunkerhost[0].app[1] packetSent:vector(packetBytes) ETV
attr interpolationmode none
attr recordingmode vector(packetBytes)
attr source packetSent
attr title "packets sent, packetBytes"
vector 185 Network.bunkerhost[3].app[1] throughput:vector ETV
attr recordingmode vector
attr source throughput(packetSent)
attr title throughput
attr unit bps
vector 186 Network.bunkerhost[3].app[1] packetSent:vector(packetBytes) ETV
attr interpolationmode none
attr recordingmode vector(packetBytes)
attr source packetSent
attr title "packets sent, packetBytes"
vector 187 Network.bunkerhost[6].app[0] throughput:vector ETV
attr recordingmode vector
attr source throughput(packetSent)
attr title throughput
attr unit bps
vector 188 Network.bunkerhost[6].app[0] packetSent:vector(packetBytes) ETV
attr interpolationmode none
attr recordingmode vector(packetBytes)
attr source packetSent
attr title "packets sent, packetBytes"
vector 189 Network.bunkerhost[10].app[1] throughput:vector ETV
attr recordingmode vector
attr source throughput(packetSent)
attr title throughput
attr unit bps
vector 190 Network.bunkerhost[10].app[1] packetSent:vector(packetBytes) ETV
attr interpolationmode none
attr recordingmode vector(packetBytes)
attr source packetSent
attr title "packets sent, packetBytes"
vector 191 Network.bunkerhost[0].udp packetSent:vector(packetBytes) ETV
attr interpolationmode none
attr recordingmode vector(packetBytes)
attr source packetSent
attr title "packets sent, packetBytes"
vector 192 Network.bunkerhost[3].udp packetSent:vector(packetBytes) ETV
attr interpolationmode none
attr recordingmode vector(packetBytes)
attr source packetSent
attr title "packets sent, packetBytes"
vector 193 Network.bunkerhost[0].ethernet encapPk:vector(packetBytes) ETV
attr interpolationmode none
attr recordingmode vector(packetBytes)
attr source encapPk
attr title "packets encapsulated, packetBytes"
vector 194 Network.bunkerhost[3].ethernet encapPk:vector(packetBytes) ETV
attr interpolationmode none
attr recordingmode vector(packetBytes)
attr source encapPk
attr title "packets encapsulated, packetBytes"
vector 195 Network.bunkerhost[0].eth[0].queue incomingPacketLengths:vector ETV
attr interpolationmode none
attr recordingmode vector
attr source packetLength(packetPushStarted)
attr title "incoming packet lengths"
attr unit b
vector 196 Network.bunkerhost[0].eth[0].queue incomingDataRate:vector ETV
attr interpolationmode linear
attr recordingmode vector
attr source throughput(packetPushStarted)
attr title "incoming datarate"
attr unit bps
vector 197 Network.bunkerhost[0].eth[0].queue queueingTime:vector ETV
attr interpolationmode none
attr recordingmode vector
attr source queueingTime(packetPulled)
attr title "queueing times"
attr unit s
vector 198 Network.bunkerhost[0].eth[0].queue outgoingPacketLengths:vector ETV
attr interpolationmode none
attr recordingmode vector
attr source packetLength(packetPulled)
attr title "outgoing packet lengths"
attr unit b
vector 199 Network.bunkerhost[0].eth[0].queue outgoingDataRate:vector ETV
attr interpolationmode linear
attr recordingmode vector
attr source throughput(packetPulled)
attr title "outgoing datarate"
attr unit bps
vector 200 Network.bunkerhost[0].eth[0].mac packetReceivedFromUpper:vector(packetBytes) ETV
attr interpolationmode none
attr recordingmode vector(packetBytes)
attr source packetReceivedFromUpper
attr title "packet bytes from higher layer, packetBytes"
vector 201 Network.bunkerhost[0].eth[0].queue queueLength:vector ETV
attr autoWarmupFilter false
attr interpolationmode sample-hold
attr recordingmode vector
attr source "warmup(atomic(constant0(packetPushEnded) + count(packetPushStarted) - count(packetPulled) - count(packetRemoved) - count(packetDropped)))"
attr title "queue length"
attr unit pk
vector 202 Network.bunkerhost[0].eth[0].queue queueBitLength:vector ETV
attr autoWarmupFilter false
attr interpolationmode sample-hold
attr recordingmode vector
attr source "warmup(atomic(constant0(packetPushEnded) + sum(packetLength(packetPushStarted)) - sum(packetLength(packetPulled)) - sum(packetLength(packetRemoved)) - sum(packetLength(packetDropped))))"
attr title "queue bit length"
attr unit b
vector 203 Network.bunkerhost[3].eth[0].queue incomingPacketLengths:vector ETV
attr interpolationmode none
attr recordingmode vector
attr source packetLength(packetPushStarted)
attr title "incoming packet lengths"
attr unit b
vector 204 Network.bunkerhost[3].eth[0].queue incomingDataRate:vector ETV
attr interpolationmode linear
attr recordingmode vector
attr source throughput(packetPushStarted)
attr title "incoming datarate"
attr unit bps
vector 205 Network.bunkerhost[3].eth[0].queue queueingTime:vector ETV
attr interpolationmode none
attr recordingmode vector
attr source queueingTime(packetPulled)
attr title "queueing times"
attr unit s
vector 206 Network.bunkerhost[3].eth[0].queue outgoingPacketLengths:vector ETV
attr interpolationmode none
attr recordingmode vector
attr source packetLength(packetPulled)
attr title "outgoing packet lengths"
attr unit b
vector 207 Network.bunkerhost[3].eth[0].queue outgoingDataRate:vector ETV
attr interpolationmode linear
attr recordingmode vector
attr source throughput(packetPulled)
attr title "outgoing datarate"
attr unit bps
vector 208 Network.bunkerhost[3].eth[0].mac packetReceivedFromUpper:vector(packetBytes) ETV
attr interpolationmode none
attr recordingmode vector(packetBytes)
attr source packetReceivedFromUpper
attr title "packet bytes from higher layer, packetBytes"
vector 209 Network.bunkerhost[3].eth[0].queue queueLength:vector ETV
attr autoWarmupFilter false
attr interpolationmode sample-hold
attr recordingmode vector
attr source "warmup(atomic(constant0(packetPushEnded) + count(packetPushStarted) - count(packetPulled) - count(packetRemoved) - count(packetDropped)))"
attr title "queue length"
attr unit pk
vector 210 Network.bunkerhost[3].eth[0].queue queueBitLength:vector ETV
attr autoWarmupFilter false
attr interpolationmode sample-hold
attr recordingmode vector
attr source "warmup(atomic(constant0(packetPushEnded) + sum(packetLength(packetPushStarted)) - sum(packetLength(packetPulled)) - sum(packetLength(packetRemoved)) - sum(packetLength(packetDropped))))"
attr title "queue bit length"
attr unit b
vector 211 Network.bunkerhost[0].eth[0].mac txPk:vector(packetBytes) ETV
attr interpolationmode none
attr recordingmode vector(packetBytes)
attr source packetSentToLower
attr title "packets transmitted, packetBytes"
vector 212 Network.bunkerhost[3].eth[0].mac txPk:vector(packetBytes) ETV
attr interpolationmode none
attr recordingmode vector(packetBytes)
attr source packetSentToLower
attr title "packets transmitted, packetBytes"
vector 213 Network.bunkerrouter[0].eth[1].mac rxPkOk:vector(packetBytes) ETV
attr interpolationmode none
attr recordingmode vector(packetBytes)
attr source rxPkOk
attr title "packets received OK, packetBytes"
vector 214 Network.bunkerrouter[0].eth[1].mac passedUpPk:vector(packetBytes) ETV
attr interpolationmode none
attr recordingmode vector(packetBytes)
attr source packetSentToUpper
attr title "packets passed to higher layer, packetBytes"
vector 215 Network.bunkerrouter[0].eth[4].mac rxPkOk:vector(packetBytes) ETV
attr interpolationmode none
attr recordingmode vector(packetBytes)
attr source rxPkOk
attr title "packets received OK, packetBytes"
vector 216 Network.bunkerrouter[0].eth[4].mac passedUpPk:vector(packetBytes) ETV
attr interpolationmode none
attr recordingmode vector(packetBytes)
attr source packetSentToUpper
attr title "packets passed to higher layer, packetBytes"
vector 217 Network.mainrouter.eth[1].queue incomingPacketLengths:vector ETV
attr interpolationmode none
attr recordingmode vector
attr source packetLength(packetPushStarted)
attr title "incoming packet lengths"
attr unit b
vector 218 Network.mainrouter.eth[1].queue incomingDataRate:vector ETV
attr interpolationmode linear
attr recordingmode vector
attr source throughput(packetPushStarted)
attr title "incoming datarate"
attr unit bps
vector 219 Network.mainrouter.eth[1].queue queueingTime:vector ETV
attr interpolationmode none
attr recordingmode vector
attr source queueingTime(packetPulled)
attr title "queueing times"
attr unit s
vector 220 Network.mainrouter.eth[1].queue outgoingPacketLengths:vector ETV
attr interpolationmode none
attr recordingmode vector
attr source packetLength(packetPulled)
attr title "outgoing packet lengths"
attr unit b
vector 221 Network.mainrouter.eth[1].queue outgoingDataRate:vector ETV
attr interpolationmode linear
attr recordingmode vector
attr source throughput(packetPulled)
attr title "outgoing datarate"
attr unit bps
vector 222 Network.mainrouter.eth[1].mac packetReceivedFromUpper:vector(packetBytes) ETV
attr interpolationmode none
attr recordingmode vector(packetBytes)
attr source packetReceivedFromUpper
attr title "packet bytes from higher layer, packetBytes"
vector 223 Network.mainrouter.eth[1].queue queueLength:vector ETV
attr autoWarmupFilter false
attr interpolationmode sample-hold
attr recordingmode vector
attr source "warmup(atomic(constant0(packetPushEnded) + count(packetPushStarted) - count(packetPulled) - count(packetRemoved) - count(packetDropped)))"
attr title "queue length"
attr unit pk
vector 224 Network.mainrouter.eth[1].queue queueBitLength:vector ETV
attr autoWarmupFilter false
attr interpolationmode sample-hold
attr recordingmode vector
attr source "warmup(atomic(constant0(packetPushEnded) + sum(packetLength(packetPushStarted)) - sum(packetLength(packetPulled)) - sum(packetLength(packetRemoved)) - sum(packetLength(packetDropped))))"
attr title "queue bit length"
attr unit b
vector 225 Network.mainrouter.eth[1].mac txPk:vector(packetBytes) ETV
attr interpolationmode none
attr recordingmode vector(packetBytes)
attr source packetSentToLower
attr title "packets transmitted, packetBytes"
vector 226 Network.mainrouter.eth[3].queue incomingPacketLengths:vector ETV
attr interpolationmode none
attr recordingmode vector
attr source packetLength(packetPushStarted)
attr title "incoming packet lengths"
attr unit b
vector 227 Network.mainrouter.eth[3].queue incomingDataRate:vector ETV
attr interpolationmode linear
attr recordingmode vector
attr source throughput(packetPushStarted)
attr title "incoming datarate"
attr unit bps
vector 228 Network.mainrouter.eth[3].queue queueingTime:vector ETV
attr interpolationmode none
attr recordingmode vector
attr source queueingTime(packetPulled)
attr title "queueing times"
attr unit s
vector 229 Network.mainrouter.eth[3].queue outgoingPacketLengths:vector ETV
attr interpolationmode none
attr recordingmode vector
attr source packetLength(packetPulled)
attr title "outgoing packet lengths"
attr unit b
vector 230 Network.mainrouter.eth[3].queue outgoingDataRate:vector ETV
attr interpolationmode linear
attr recordingmode vector
attr source throughput(packetPulled)
attr title "outgoing datarate"
attr unit bps
vector 231 Network.mainrouter.eth[3].mac packetReceivedFromUpper:vector(packetBytes) ETV
attr interpolationmode none
attr recordingmode vector(packetBytes)
attr source packetReceivedFromUpper
attr title "packet bytes from higher layer, packetBytes"
vector 232 Network.mainrouter.eth[3].queue queueLength:vector ETV
attr autoWarmupFilter false
attr interpolationmode sample-hold
attr recordingmode vector
attr source "warmup(atomic(constant0(packetPushEnded) + count(packetPushStarted) - count(packetPulled) - count(packetRemoved) - count(packetDropped)))"
attr title "queue length"
attr unit pk
vector 233 Network.mainrouter.eth[3].queue queueBitLength:vector ETV
attr autoWarmupFilter false
attr interpolationmode sample-hold
attr recordingmode vector
attr source "warmup(atomic(constant0(packetPushEnded) + sum(packetLength(packetPushStarted)) - sum(packetLength(packetPulled)) - sum(packetLength(packetRemoved)) - sum(packetLength(packetDropped))))"
attr title "queue bit length"
attr unit b
vector 234 Network.bunkerrouter[0].eth[0].mac rxPkOk:vector(packetBytes) ETV
attr interpolationmode none
attr recordingmode vector(packetBytes)
attr source rxPkOk
attr title "packets received OK, packetBytes"
vector 235 Network.bunkerrouter[0].eth[0].mac passedUpPk:vector(packetBytes) ETV
attr interpolationmode none
attr recordingmode vector(packetBytes)
attr source packetSentToUpper
attr title "packets passed to higher layer, packetBytes"
vector 236 Network.bunkerrouter[0].eth[1].queue incomingPacketLengths:vector ETV
attr interpolationmode none
attr recordingmode vector
attr source packetLength(packetPushStarted)
attr title "incoming packet lengths"
attr unit b
vector 237 Network.bunkerrouter[0].eth[1].queue incomingDataRate:vector ETV
attr interpolationmode linear
attr recordingmode vector
attr source throughput(packetPushStarted)
attr title "incoming datarate"
attr unit bps
vector 238 Network.bunkerrouter[0].eth[1].queue queueingTime:vector ETV
attr interpolationmode none
attr recordingmode vector
attr source queueingTime(packetPulled)
attr title "queueing times"
attr unit s
vector 239 Network.bunkerrouter[0].eth[1].queue outgoingPacketLengths:vector ETV
attr interpolationmode none
attr recordingmode vector
attr source packetLength(packetPulled)
attr title "outgoing packet lengths"
attr unit b
vector 240 Network.bunkerrouter[0].eth[1].queue outgoingDataRate:vector ETV
attr interpolationmode linear
attr recordingmode vector
attr source throughput(packetPulled)
attr title "outgoing datarate"
attr unit bps
vector 241 Network.bunkerrouter[0].eth[1].mac packetReceivedFromUpper:vector(packetBytes) ETV
attr interpolationmode none
attr recordingmode vector(packetBytes)
attr source packetReceivedFromUpper
attr title "packet bytes from higher layer, packetBytes"
vector 242 Network.bunkerrouter[0].eth[1].queue queueLength:vector ETV
attr autoWarmupFilter false
attr interpolationmode sample-hold
attr recordingmode vector
attr source "warmup(atomic(constant0(packetPushEnded) + count(packetPushStarted) - count(packetPulled) - count(packetRemoved) - count(packetDropped)))"
attr title "queue length"
attr unit pk
vector 243 Network.bunkerrouter[0].eth[1].queue queueBitLength:vector ETV
attr autoWarmupFilter false
attr interpolationmode sample-hold
attr recordingmode vector
attr source "warmup(atomic(constant0(packetPushEnded) + sum(packetLength(packetPushStarted)) - sum(packetLength(packetPulled)) - sum(packetLength(packetRemoved)) - sum(packetLength(packetDropped))))"
attr title "queue bit length"
attr unit b
vector 244 Network.mainrouter.eth[3].mac txPk:vector(packetBytes) ETV
attr interpolationmode none
attr recordingmode vector(packetBytes)
attr source packetSentToLower
attr title "packets transmitted, packetBytes"
vector 245 Network.bunkerrouter[0].eth[1].mac txPk:vector(packetBytes) ETV
attr interpolationmode none
attr recordingmode vector(packetBytes)
attr source packetSentToLower
attr title "packets transmitted, packetBytes"
vector 246 Network.bunkerrouter[2].eth[0].mac rxPkOk:vector(packetBytes) ETV
attr interpolationmode none
attr recordingmode vector(packetBytes)
attr source rxPkOk
attr title "packets received OK, packetBytes"
vector 247 Network.bunkerrouter[2].eth[0].mac passedUpPk:vector(packetBytes) ETV
attr interpolationmode none
attr recordingmode vector(packetBytes)
attr source packetSentToUpper
attr title "packets passed to higher layer, packetBytes"
vector 248 Network.bunkerrouter[2].eth[3].queue incomingPacketLengths:vector ETV
attr interpolationmode none
attr recordingmode vector
attr source packetLength(packetPushStarted)
attr title "incoming packet lengths"
attr unit b
vector 249 Network.bunkerrouter[2].eth[3].queue incomingDataRate:vector ETV
attr interpolationmode linear
attr recordingmode vector
attr source throughput(packetPushStarted)
attr title "incoming datarate"
attr unit bps
vector 250 Network.bunkerrouter[2].eth[3].queue queueingTime:vector ETV
attr interpolationmode none
attr recordingmode vector
attr source queueingTime(packetPulled)
attr title "queueing times"
attr unit s
vector 251 Network.bunkerrouter[2].eth[3].queue outgoingPacketLengths:vector ETV
attr interpolationmode none
attr recordingmode vector
attr source packetLength(packetPulled)
attr title "outgoing packet lengths"
attr unit b
vector 252 Network.bunkerrouter[2].eth[3].queue outgoingDataRate:vector ETV
attr interpolationmode linear
attr recordingmode vector
attr source throughput(packetPulled)
attr title "outgoing datarate"
attr unit bps
vector 253 Network.bunkerrouter[2].eth[3].mac packetReceivedFromUpper:vector(packetBytes) ETV
attr interpolationmode none
attr recordingmode vector(packetBytes)
attr source packetReceivedFromUpper
attr title "packet bytes from higher layer, packetBytes"
vector 254 Network.bunkerrouter[2].eth[3].queue queueLength:vector ETV
attr autoWarmupFilter false
attr interpolationmode sample-hold
attr recordingmode vector
attr source "warmup(atomic(constant0(packetPushEnded) + count(packetPushStarted) - count(packetPulled) - count(packetRemoved) - count(packetDropped)))"
attr title "queue length"
attr unit pk
vector 255 Network.bunkerrouter[2].eth[3].queue queueBitLength:vector ETV
attr autoWarmupFilter false
attr interpolationmode sample-hold
attr recordingmode vector
attr source "warmup(atomic(constant0(packetPushEnded) + sum(packetLength(packetPushStarted)) - sum(packetLength(packetPulled)) - sum(packetLength(packetRemoved)) - sum(packetLength(packetDropped))))"
attr title "queue bit length"
attr unit b
vector 256 Network.bunkerhost[0].eth[0].mac rxPkOk:vector(packetBytes) ETV
attr interpolationmode none
attr recordingmode vector(packetBytes)
attr source rxPkOk
attr title "packets received OK, packetBytes"
vector 257 Network.bunkerhost[0].eth[0].mac passedUpPk:vector(packetBytes) ETV
attr interpolationmode none
attr recordingmode vector(packetBytes)
attr source packetSentToUpper
attr title "packets passed to higher layer, packetBytes"
vector 258 Network.bunkerhost[0].ethernet decapPk:vector(packetBytes) ETV
attr interpolationmode none
attr recordingmode vector(packetBytes)
attr source decapPk
attr title "packets decapsulated, packetBytes"
vector 259 Network.bunkerhost[0].udp packetReceived:vector(packetBytes) ETV
attr interpolationmode none
attr recordingmode vector(packetBytes)
attr source packetReceived
attr title "packets received, packetBytes"
vector 260 Network.bunkerhost[0].app[1] endtoenddelay:vector ETV
attr interpolationmode linear
attr recordingmode vector
attr source endtoenddelay
attr title "End-to-end Delay"
vector 261 Network.bunkerhost[0].app[1] packetReceived:vector(packetBytes) ETV
attr interpolationmode none
attr recordingmode vector(packetBytes)
attr source packetReceived
attr title "packets received, packetBytes"
vector 262 Network.bunkerrouter[2].eth[3].mac txPk:vector(packetBytes) ETV
attr interpolationmode none
attr recordingmode vector(packetBytes)
attr source packetSentToLower
attr title "packets transmitted, packetBytes"
vector 263 Network.bunkerrouter[0].eth[4].queue incomingPacketLengths:vector ETV
attr interpolationmode none
attr recordingmode vector
attr source packetLength(packetPushStarted)
attr title "incoming packet lengths"
attr unit b
vector 264 Network.bunkerrouter[0].eth[4].queue incomingDataRate:vector ETV
attr interpolationmode linear
attr recordingmode vector
attr source throughput(packetPushStarted)
attr title "incoming datarate"
attr unit bps
vector 265 Network.bunkerrouter[0].eth[4].queue queueingTime:vector ETV
attr interpolationmode none
attr recordingmode vector
attr source queueingTime(packetPulled)
attr title "queueing times"
attr unit s
vector 266 Network.bunkerrouter[0].eth[4].queue outgoingPacketLengths:vector ETV
attr interpolationmode none
attr recordingmode vector
attr source packetLength(packetPulled)
attr title "outgoing packet lengths"
attr unit b
vector 267 Network.bunkerrouter[0].eth[4].queue outgoingDataRate:vector ETV
attr interpolationmode linear
attr recordingmode vector
attr source throughput(packetPulled)
attr title "outgoing datarate"
attr unit bps
vector 268 Network.bunkerrouter[0].eth[4].mac packetReceivedFromUpper:vector(packetBytes) ETV
attr interpolationmode none
attr recordingmode vector(packetBytes)
attr source packetReceivedFromUpper
attr title "packet bytes from higher layer, packetBytes"
vector 269 Network.bunkerrouter[0].eth[4].queue queueLength:vector ETV
attr autoWarmupFilter false
attr interpolationmode sample-hold
attr recordingmode vector
attr source "warmup(atomic(constant0(packetPushEnded) + count(packetPushStarted) - count(packetPulled) - count(packetRemoved) - count(packetDropped)))"
attr title "queue length"
attr unit pk
vector 270 Network.bunkerrouter[0].eth[4].queue queueBitLength:vector ETV
attr autoWarmupFilter false
attr interpolationmode sample-hold
attr recordingmode vector
attr source "warmup(atomic(constant0(packetPushEnded) + sum(packetLength(packetPushStarted)) - sum(packetLength(packetPulled)) - sum(packetLength(packetRemoved)) - sum(packetLength(packetDropped))))"
attr title "queue bit length"
attr unit b
vector 271 Network.bunkerrouter[0].eth[4].mac txPk:vector(packetBytes) ETV
attr interpolationmode none
attr recordingmode vector(packetBytes)
attr source packetSentToLower
attr title "packets transmitted, packetBytes"
vector 272 Network.bunkerhost[10].eth[0].mac rxPkOk:vector(packetBytes) ETV
attr interpolationmode none
attr recordingmode vector(packetBytes)
attr source rxPkOk
attr title "packets received OK, packetBytes"
vector 273 Network.bunkerhost[10].eth[0].mac passedUpPk:vector(packetBytes) ETV
attr interpolationmode none
attr recordingmode vector(packetBytes)
attr source packetSentToUpper
attr title "packets passed to higher layer, packetBytes"
vector 274 Network.bunkerhost[10].ethernet decapPk:vector(packetBytes) ETV
attr interpolationmode none
attr recordingmode vector(packetBytes)
attr source decapPk
attr title "packets decapsulated, packetBytes"
vector 275 Network.bunkerhost[10].udp packetReceived:vector(packetBytes) ETV
attr interpolationmode none
attr recordingmode vector(packetBytes)
attr source packetReceived
attr title "packets received, packetBytes"
vector 276 Network.bunkerhost[10].app[1] endtoenddelay:vector ETV
attr interpolationmode linear
attr recordingmode vector
attr source endtoenddelay
attr title "End-to-end Delay"
vector 277 Network.bunkerhost[10].app[1] packetReceived:vector(packetBytes) ETV
attr interpolationmode none
attr recordingmode vector(packetBytes)
attr source packetReceived
attr title "packets received, packetBytes"
vector 278 Network.bunkerhost[3].eth[0].mac rxPkOk:vector(packetBytes) ETV
attr interpolationmode none
attr recordingmode vector(packetBytes)
attr source rxPkOk
attr title "packets received OK, packetBytes"
vector 279 Network.bunkerhost[3].eth[0].mac passedUpPk:vector(packetBytes) ETV
attr interpolationmode none
attr recordingmode vector(packetBytes)
attr source packetSentToUpper
attr title "packets passed to higher layer, packetBytes"
vector 280 Network.bunkerhost[3].ethernet decapPk:vector(packetBytes) ETV
attr interpolationmode none
attr recordingmode vector(packetBytes)
attr source decapPk
attr title "packets decapsulated, packetBytes"
vector 281 Network.bunkerhost[3].udp packetReceived:vector(packetBytes) ETV
attr interpolationmode none
attr recordingmode vector(packetBytes)
attr source packetReceived
attr title "packets received, packetBytes"
vector 282 Network.bunkerhost[3].app[1] endtoenddelay:vector ETV
attr interpolationmode linear
attr recordingmode vector
attr source endtoenddelay
attr title "End-to-end Delay"
vector 283 Network.bunkerhost[3].app[1] packetReceived:vector(packetBytes) ETV
attr interpolationmode none
attr recordingmode vector(packetBytes)
attr source packetReceived
attr title "packets received, packetBytes"
vector 284 Network.bunkerhost[0].app[0] throughput:vector ETV
attr recordingmode vector
attr source throughput(packetSent)
attr title throughput
attr unit bps
vector 285 Network.bunkerhost[0].app[0] packetSent:vector(packetBytes) ETV
attr interpolationmode none
attr recordingmode vector(packetBytes)
attr source packetSent
attr title "packets sent, packetBytes"
vector 286 Network.bunkerhost[1].app[1] throughput:vector ETV
attr recordingmode vector
attr source throughput(packetSent)
attr title throughput
attr unit bps
vector 287 Network.bunkerhost[1].app[1] packetSent:vector(packetBytes) ETV
attr interpolationmode none
attr recordingmode vector(packetBytes)
attr source packetSent
attr title "packets sent, packetBytes"
vector 288 Network.bunkerhost[2].app[1] throughput:vector ETV
attr recordingmode vector
attr source throughput(packetSent)
attr title throughput
attr unit bps
vector 289 Network.bunkerhost[2].app[1] packetSent:vector(packetBytes) ETV
attr interpolationmode none
attr recordingmode vector(packetBytes)
attr source packetSent
attr title "packets sent, packetBytes"
vector 290 Network.bunkerhost[1].udp packetSent:vector(packetBytes) ETV
attr interpolationmode none
attr recordingmode vector(packetBytes)
attr source packetSent
attr title "packets sent, packetBytes"
vector 291 Network.bunkerhost[1].ethernet encapPk:vector(packetBytes) ETV
attr interpolationmode none
attr recordingmode vector(packetBytes)
attr source encapPk
attr title "packets encapsulated, packetBytes"
vector 292 Network.bunkerhost[1].eth[0].queue incomingPacketLengths:vector ETV
attr interpolationmode none
attr recordingmode vector
attr source packetLength(packetPushStarted)
attr title "incoming packet lengths"
attr unit b
vector 293 Network.bunkerhost[1].eth[0].queue incomingDataRate:vector ETV
attr interpolationmode linear
attr recordingmode vector
attr source throughput(packetPushStarted)
attr title "incoming datarate"
attr unit bps
vector 294 Network.bunkerhost[1].eth[0].queue queueingTime:vector ETV
attr interpolationmode none
attr recordingmode vector
attr source queueingTime(packetPulled)
attr title "queueing times"
attr unit s
vector 295 Network.bunkerhost[1].eth[0].queue outgoingPacketLengths:vector ETV
attr interpolationmode none
attr recordingmode vector
attr source packetLength(packetPulled)
attr title "outgoing packet lengths"
attr unit b
vector 296 Network.bunkerhost[1].eth[0].queue outgoingDataRate:vector ETV
attr interpolationmode linear
attr recordingmode vector
attr source throughput(packetPulled)
attr title "outgoing datarate"
attr unit bps
vector 297 Network.bunkerhost[1].eth[0].mac packetReceivedFromUpper:vector(packetBytes) ETV
attr interpolationmode none
attr recordingmode vector(packetBytes)
attr source packetReceivedFromUpper
attr title "packet bytes from higher layer, packetBytes"
vector 298 Network.bunkerhost[1].eth[0].queue queueLength:vector ETV
attr autoWarmupFilter false
attr interpolationmode sample-hold
attr recordingmode vector
attr source "warmup(atomic(constant0(packetPushEnded) + count(packetPushStarted) - count(packetPulled) - count(packetRemoved) - count(packetDropped)))"
attr title "queue length"
attr unit pk
vector 299 Network.bunkerhost[1].eth[0].queue queueBitLength:vector ETV
attr autoWarmupFilter false
attr interpolationmode sample-hold
attr recordingmode vector
attr source "warmup(atomic(constant0(packetPushEnded) + sum(packetLength(packetPushStarted)) - sum(packetLength(packetPulled)) - sum(packetLength(packetRemoved)) - sum(packetLength(packetDropped))))"
attr title "queue bit length"
attr unit b
vector 300 Network.bunkerhost[1].eth[0].mac txPk:vector(packetBytes) ETV
attr interpolationmode none
attr recordingmode vector(packetBytes)
attr source packetSentToLower
attr title "packets transmitted, packetBytes"
vector 301 Network.bunkerrouter[0].eth[2].mac rxPkOk:vector(packetBytes) ETV
attr interpolationmode none
attr recordingmode vector(packetBytes)
attr source rxPkOk
attr title "packets received OK, packetBytes"
vector 302 Network.bunkerrouter[0].eth[2].mac passedUpPk:vector(packetBytes) ETV
attr interpolationmode none
attr recordingmode vector(packetBytes)
attr source packetSentToUpper
attr title "packets passed to higher layer, packetBytes"
vector 303 Network.server.app[0] successfulLookup:vector ETV
attr interpolationmode linear
attr recordingmode vector
attr source successfulLookup
attr title "Successful Lookup Count"
vector 304 Network.bunkerrouter[0].eth[2].queue incomingPacketLengths:vector ETV
attr interpolationmode none
attr recordingmode vector
attr source packetLength(packetPushStarted)
attr title "incoming packet lengths"
attr unit b
vector 305 Network.bunkerrouter[0].eth[2].queue incomingDataRate:vector ETV
attr interpolationmode linear
attr recordingmode vector
attr source throughput(packetPushStarted)
attr title "incoming datarate"
attr unit bps
vector 306 Network.bunkerrouter[0].eth[2].queue queueingTime:vector ETV
attr interpolationmode none
attr recordingmode vector
attr source queueingTime(packetPulled)
attr title "queueing times"
attr unit s
vector 307 Network.bunkerrouter[0].eth[2].queue outgoingPacketLengths:vector ETV
attr interpolationmode none
attr recordingmode vector
attr source packetLength(packetPulled)
attr title "outgoing packet lengths"
attr unit b
vector 308 Network.bunkerrouter[0].eth[2].queue outgoingDataRate:vector ETV
attr interpolationmode linear
attr recordingmode vector
attr source throughput(packetPulled)
attr title "outgoing datarate"
attr unit bps
vector 309 Network.bunkerrouter[0].eth[2].mac packetReceivedFromUpper:vector(packetBytes) ETV
attr interpolationmode none
attr recordingmode vector(packetBytes)
attr source packetReceivedFromUpper
attr title "packet bytes from higher layer, packetBytes"
vector 310 Network.bunkerrouter[0].eth[2].queue queueLength:vector ETV
attr autoWarmupFilter false
attr interpolationmode sample-hold
attr recordingmode vector
attr source "warmup(atomic(constant0(packetPushEnded) + count(packetPushStarted) - count(packetPulled) - count(packetRemoved) - count(packetDropped)))"
attr title "queue length"
attr unit pk
vector 311 Network.bunkerrouter[0].eth[2].queue queueBitLength:vector ETV
attr autoWarmupFilter false
attr interpolationmode sample-hold
attr recordingmode vector
attr source "warmup(atomic(constant0(packetPushEnded) + sum(packetLength(packetPushStarted)) - sum(packetLength(packetPulled)) - sum(packetLength(packetRemoved)) - sum(packetLength(packetDropped))))"
attr title "queue bit length"
attr unit b
vector 312 Network.bunkerrouter[0].eth[2].mac txPk:vector(packetBytes) ETV
attr interpolationmode none
attr recordingmode vector(packetBytes)
attr source packetSentToLower
attr title "packets transmitted, packetBytes"
vector 313 Network.bunkerrouter[0].eth[3].queue incomingPacketLengths:vector ETV
attr interpolationmode none
attr recordingmode vector
attr source packetLength(packetPushStarted)
attr title "incoming packet lengths"
attr unit b
vector 314 Network.bunkerrouter[0].eth[3].queue incomingDataRate:vector ETV
attr interpolationmode linear
attr recordingmode vector
attr source throughput(packetPushStarted)
attr title "incoming datarate"
attr unit bps
vector 315 Network.bunkerrouter[0].eth[3].queue queueingTime:vector ETV
attr interpolationmode none
attr recordingmode vector
attr source queueingTime(packetPulled)
attr title "queueing times"
attr unit s
vector 316 Network.bunkerrouter[0].eth[3].queue outgoingPacketLengths:vector ETV
attr interpolationmode none
attr recordingmode vector
attr source packetLength(packetPulled)
attr title "outgoing packet lengths"
attr unit b
vector 317 Network.bunkerrouter[0].eth[3].queue outgoingDataRate:vector ETV
attr interpolationmode linear
attr recordingmode vector
attr source throughput(packetPulled)
attr title "outgoing datarate"
attr unit bps
vector 318 Network.bunkerrouter[0].eth[3].mac packetReceivedFromUpper:vector(packetBytes) ETV
attr interpolationmode none
attr recordingmode vector(packetBytes)
attr source packetReceivedFromUpper
attr title "packet bytes from higher layer, packetBytes"
vector 319 Network.bunkerrouter[0].eth[3].queue queueLength:vector ETV
attr autoWarmupFilter false
attr interpolationmode sample-hold
attr recordingmode vector
attr source "warmup(atomic(constant0(packetPushEnded) + count(packetPushStarted) - count(packetPulled) - count(packetRemoved) - count(packetDropped)))"
attr title "queue length"
attr unit pk
vector 320 Network.bunkerrouter[0].eth[3].queue queueBitLength:vector ETV
attr autoWarmupFilter false
attr interpolationmode sample-hold
attr recordingmode vector
attr source "warmup(atomic(constant0(packetPushEnded) + sum(packetLength(packetPushStarted)) - sum(packetLength(packetPulled)) - sum(packetLength(packetRemoved)) - sum(packetLength(packetDropped))))"
attr title "queue bit length"
attr unit b
vector 321 Network.bunkerrouter[0].eth[3].mac txPk:vector(packetBytes) ETV
attr interpolationmode none
attr recordingmode vector(packetBytes)
attr source packetSentToLower
attr title "packets transmitted, packetBytes"
vector 322 Network.bunkerhost[1].eth[0].mac rxPkOk:vector(packetBytes) ETV
attr interpolationmode none
attr recordingmode vector(packetBytes)
attr source rxPkOk
attr title "packets received OK, packetBytes"
vector 323 Network.bunkerhost[1].eth[0].mac passedUpPk:vector(packetBytes) ETV
attr interpolationmode none
attr recordingmode vector(packetBytes)
attr source packetSentToUpper
attr title "packets passed to higher layer, packetBytes"
vector 324 Network.bunkerhost[1].ethernet decapPk:vector(packetBytes) ETV
attr interpolationmode none
attr recordingmode vector(packetBytes)
attr source decapPk
attr title "packets decapsulated, packetBytes"
vector 325 Network.bunkerhost[1].udp packetReceived:vector(packetBytes) ETV
attr interpolationmode none
attr recordingmode vector(packetBytes)
attr source packetReceived
attr title "packets received, packetBytes"
vector 326 Network.bunkerhost[1].app[1] endtoenddelay:vector ETV
attr interpolationmode linear
attr recordingmode vector
attr source endtoenddelay
attr title "End-to-end Delay"
vector 327 Network.bunkerhost[1].app[1] packetReceived:vector(packetBytes) ETV
attr interpolationmode none
attr recordingmode vector(packetBytes)
attr source packetReceived
attr title "packets received, packetBytes"
[...]
264	2608953 50632 279 17240 0.1 300 3000 0 63120 241920 11831603200
265	2659585 185 279 14390 7.00010024 245.00002064 8 0 0 0 0
266	2659770 207 279 14390 7.00010024 245.00002064 8 528 6312 24192 118316032
267	2659977 50632 279 17240 0.1 300 3000 0 63120 241920 11831603200
268	2710609 199 279 14390 7.00010024 245.00002064 8 66 789 3024 1848688
269	2710808 185 279 14390 7.00010024 245.00002064 8 0 0 0 0
270	2710993 185 279 14390 7.00010024 245.00002064 8 0 0 0 0
271	2711178 200 280 14393 7.00010616 245.00003128 8 66 789 3024 1848688
272	2711378 688 282 17210 7.00010928 299.00022688 27 66 1016 13856 10605762
273	2712066 688 282 17210 7.00010928 299.00022688 27 66 1016 13856 10605762
274	2712754 686 283 17211 7.00010928 299.00022688 27 48 998 13370 10115694
275	2713440 686 285 17213 7.00010928 299.00022688 27 28 978 12830 9591694
276	2714126 868 286 17214 7.00010928 299.00022688 27 4.776e-05 0.00036768 0.00548752 1.5017070976e-06
277	2714994 686 286 17214 7.00010928 299.00022688 27 20 970 12614 9388142
278	2715680 200 287 14402 7.00011616 245.00004128 8 66 789 3024 1848688
279	2715880 200 287 14402 7.00011616 245.00004128 8 66 789 3024 1848688
280	2716080 200 288 14403 7.00011616 245.00004128 8 48 771 2880 1742416
281	2716280 199 290 14405 7.00011616 245.00004128 8 28 751 2720 1630416
282	2716479 252 291 14406 7.00011616 245.00004128 8 4.128e-05 0.00027744 0.00103152 2.028105856e-07
283	2716731 199 291 14406 7.00011616 245.00004128 8 20 743 2656 1587408
284	2716930 50742 292 17240 0.1 300 3000 0 1600 32000 51200000
285	2767672 318 292 16433 8 288 20 20 20 400 8000
286	2767990 50731 293 17240 0.1 300 3000 0 76080 808480 41332774400
287	2818721 382 293 16198 8 284 22 20 951 10106 6414446
288	2819103 50848 294 17231 0.1 300 3000 0 70800 730320 37288275200
289	2869951 519 294 17231 8 300 29 20 885 9725 6146949
290	2870470 686 298 16617 8 290 41 28 959 10814 6592446
291	2871156 687 305 16623 8 290 41 48 979 11634 7041406
292	2871843 728 308 16626 8 290 41 528 7976 98976 478304896
293	2872571 50770 308 17240 0.1 300 3000 0 79760 989760 50603123200
294	2923341 672 308 16626 8 290 41 0 7.096e-05 0.00013984 8.926656e-09
295	2924013 753 308 16626 8 290 41 528 7976 98976 478304896
296	2924766 50770 308 17240 0.1 300 3000 0 79760 989760 50603123200
297	2975536 712 308 16626 8 290 41 66 997 12372 7473514
298	2976248 696 308 16626 8 290 44 0 1 3 3
299	2976944 703 308 16626 8 290 44 0 3784 4840 14876224
300	2977647 1032 311 16629 8.00000592 290.00000592 41 66 997 12372 7473514
301	2978679 1032 317 16633 8.00001592 290.00001592 41 66 997 12372 7473514
302	2979711 1032 317 16633 8.00001592 290.00001592 41 66 997 12372 7473514
303	2980743 613 367 14548 8.00005464 246.00005464 26 1 26 351 6201
304	2981356 1007 403 16691 8.00008648 290.00018744 38 528 8336 154376 816595392
305	2982363 50764 403 17240 0.1 300 3000 0 113760 1543760 89630867200
306	3033127 896 403 16691 8.00008648 290.00018744 38 0 0 0 0
307	3034023 1007 403 16691 8.00008648 290.00018744 38 528 8336 154376 816595392
308	3035030 50764 403 17240 0.1 300 3000 0 113760 1543760 89630867200
309	3085794 972 403 16691 8.00008648 290.00018744 38 66 1042 19297 12759303
310	3086766 896 403 16691 8.00008648 290.00018744 38 0 0 0 0
311	3087662 896 403 16691 8.00008648 290.00018744 38 0 0 0 0
312	3088558 968 404 16692 8.0000924 290.00023992 38 66 1042 19297 12759303
313	3089526 834 410 17081 8.00009336 297.00005688 32 528 7768 88608 438938368
314	3090360 50817 410 17240 0.1 300 3000 0 102960 886080 49408230400
315	3141177 752 410 17081 8.00009336 297.00005688 32 0 0 0 0
316	3141929 834 410 17081 8.00009336 297.00005688 32 528 7768 88608 438938368
317	3142763 50817 410 17240 0.1 300 3000 0 102960 886080 49408230400
318	3193580 804 410 17081 8.00009336 297.00005688 32 66 971 11076 6858412
319	3194384 752 410 17081 8.00009336 297.00005688 32 0 0 0 0
320	3195136 752 410 17081 8.00009336 297.00005688 32 0 0 0 0
321	3195888 809 411 17082 8.00009928 297.00006584 32 66 971 11076 6858412
322	3196697 968 413 16694 8.0001024 290.00024992 38 66 1042 19297 12759303
323	3197665 968 413 16694 8.0001024 290.00024992 38 66 1042 19297 12759303
324	3198633 966 414 16695 8.0001024 290.00024992 38 48 1024 18613 12076923
325	3199599 966 416 16697 8.0001024 290.00024992 38 28 1004 17853 11347603
326	3200565 1209 417 16698 8.0001024 290.00024992 38 4.776e-05 0.000376 0.00640024 1.4097563072e-06
327	3201774 964 417 16698 8.0001024 290.00024992 38 20 996 17549 11064387
328	3202738 354 417 16198 8.0001024 284 20 79 951 10066 6413646
329	3203092 809 422 17084 8.00010928 297.00007584 32 66 971 11076 6858412
330	3203901 809 422 17084 8.00010928 297.00007584 32 66 971 11076 6858412
331	3204710 808 423 17085 8.00010928 297.00007584 32 48 953 10500 6470044
332	3205518 807 425 17087 8.00010928 297.00007584 32 28 933 9860 6062844
333	3206325 1027 426 17088 8.00010928 297.00007584 32 3.536e-05 0.00035328 0.00395016 7.628047552e-07
334	3207352 807 426 17088 8.00010928 297.00007584 32 20 925 9604 5907132
335	3208159 719 440 17088 8.00016464 297.00007584 22 3.536e-05 0.00035328 0.00345864 7.384711744e-07
336	3208878 50799 441 17240 0.1 300 3000 0 1600 30400 48640000
337	3259677 304 441 16614 9 290 19 20 20 380 7600
338	3259981 50914 473 17240 0.1 300 3000 0 74000 559280 29471686400
339	3310895 245 473 15456 10 267 14 20 925 6991 4593631
340	3311140 50727 474 17240 0.1 300 3000 0 76960 681840 35877164800
341	3361867 729 474 16925 10 295 41 20 962 8523 5468527
342	3362596 556 477 16979 10 296 33 28 933 7635 4721279
343	3363152 1053 479 16926 10 295 61 28 970 9411 5623199
344	3364205 556 482 16983 10 296 33 48 953 8295 5039879
345	3364761 1053 483 16928 10 295 61 48 990 10631 6024039
346	3365814 589 484 16985 10 296 33 528 7768 71112 342348224
347	3366403 50971 484 17240 0.1 300 3000 0 77680 711120 34512761600
348	3417374 510 484 16985 10 296 33 0 0 0 0
349	3417884 589 484 16985 10 296 33 528 7768 71112 342348224
350	3418473 50971 484 17240 0.1 300 3000 0 77680 711120 34512761600
351	3469444 556 484 16985 10 296 33 66 971 8889 5349191
352	3470000 510 484 16985 10 296 33 0 0 0 0
353	3470510 510 484 16985 10 296 33 0 0 0 0
354	3471020 1114 485 16929 10 295 61 528 8064 93832 411297216
355	3472134 50783 485 17240 0.1 300 3000 0 80640 938320 44681260800
356	3522917 1010 485 16929 10 295 61 0 6.88e-06 1.376e-05 9.46688e-11
357	3523927 1132 485 16929 10 295 61 528 8064 93832 411297216
358	3525059 50783 485 17240 0.1 300 3000 0 80640 938320 44681260800
359	3575842 1073 485 16929 10 295 61 66 1008 11729 6426519
360	3576915 1026 485 16929 10 295 63 0 1 2 2
361	3577941 1030 485 16929 10 295 63 0 648 1176 698688
362	3578971 842 486 16987 10.00000592 296.00000592 33 66 971 8889 5349191
363	3579813 1537 487 16930 10.00000592 295.00000592 61 66 1008 11729 6426519
364	3581350 842 490 16991 10.00001592 296.00001592 33 66 971 8889 5349191
365	3582192 842 490 16991 10.00001592 296.00001592 33 66 971 8889 5349191
366	3583034 1537 491 16932 10.00001592 295.00001592 61 66 1008 11729 6426519
367	3584571 1537 491 16932 10.00001592 295.00001592 61 66 1008 11729 6426519
368	3586108 154 558 15699 10.0000796 271.00021 6 528 7640 21704 115896768
369	3586262 51185 558 17240 0.1 300 3000 0 76400 217040 11589676800
370	3637447 137 558 15699 10.0000796 271.00021 6 0 0 0 0
371	3637584 154 558 15699 10.0000796 271.00021 6 528 7640 21704 115896768
372	3637738 51185 558 17240 0.1 300 3000 0 76400 217040 11589676800
373	3688923 148 558 15699 10.0000796 271.00021 6 66 955 2713 1810887
374	3689071 137 558 15699 10.0000796 271.00021 6 0 0 0 0
375	3689208 137 558 15699 10.0000796 271.00021 6 0 0 0 0
376	3689345 151 559 15700 10.00008552 271.00026776 6 66 955 2713 1810887
377	3689496 1253 565 17221 10.00008648 299.0002924 48 528 8336 114072 571751360
378	3690749 50776 565 17240 0.1 300 3000 0 83360 1140720 57175136000
379	3741525 1137 565 17221 10.00008648 299.0002924 48 0 0 0 0
380	3742662 1253 565 17221 10.00008648 299.0002924 48 528 8336 114072 571751360
381	3743915 50776 565 17240 0.1 300 3000 0 83360 1140720 57175136000
382	3794691 1206 565 17221 10.00008648 299.0002924 48 66 1042 14259 8933615
383	3795897 1137 565 17221 10.00008648 299.0002924 48 0 0 0 0
384	3797034 1137 565 17221 10.00008648 299.0002924 48 0 0 0 0
385	3798171 1221 566 17222 10.0000924 299.0003764 48 66 1042 14259 8933615
386	3799392 151 568 15702 10.00009552 271.00027776 6 66 955 2713 1810887
387	3799543 151 568 15702 10.00009552 271.00027776 6 66 955 2713 1810887
388	3799694 151 569 15703 10.00009552 271.00027776 6 48 937 2605 1715163
389	3799845 151 571 15705 10.00009552 271.00027776 6 28 917 2485 1613363
390	3799996 191 572 15706 10.00009552 271.00027776 6 4.776e-05 0.00034816 0.00117024 2.905591936e-07
391	3800187 151 572 15706 10.00009552 271.00027776 6 20 909 2437 1573987
392	3800338 231 572 15456 10.00009552 267 13 159 925 6971 4593231
393	3800569 1221 577 17224 10.0001024 299.0003864 48 66 1042 14259 8933615
394	3801790 1221 577 17224 10.0001024 299.0003864 48 66 1042 14259 8933615
395	3803011 1221 578 17225 10.0001024 299.0003864 48 48 1024 13395 8435843
396	3804232 1221 580 17227 10.0001024 299.0003864 48 28 1004 12435 7919243
397	3805453 1550 581 17228 10.0001024 299.0003864 48 3.296e-05 0.0003864 0.00544352 1.037994816e-06
398	3807003 1220 581 17228 10.0001024 299.0003864 48 20 996 12051 7723355
399	3808223 329 581 15714 10.0001024 274 16 35 962 8023 5458527
400	3808552 1151 627 16698 10.00019072 290.00024992 36 5.072e-05 0.000376 0.00630472 1.405194272e-06
401	3809703 915 641 15555 10.0002484 267.00030248 28 5.696e-05 0.00037056 0.00561032 1.3739250624e-06
402	3810618 50939 642 17240 0.1 300 3000 0 79680 666400 40122483200
403	3861557 274 642 16615 11 290 16 20 996 8330 6237338
404	3861831 50688 643 17240 0.1 300 3000 0 57520 450640 17890144000
405	3912519 622 643 16755 11 292 37 20 719 5633 2765895
406	3913141 50736 644 17240 0.1 300 3000 0 1600 28800 46080000
407	3963877 288 644 17031 11 297 18 20 20 360 7200
408	3964165 595 646 16618 11 290 36 28 1004 9018 6387322
409	3964760 977 648 17117 11 299 59 28 727 6545 2875639
410	3965737 410 649 17091 11 298 25 28 900 4231 2692465
411	3966147 595 653 16624 11 290 36 48 1024 9738 6762442
412	3966742 978 654 17125 11 299 59 48 747 7725 3161039
413	3967720 410 655 17093 11 298 25 48 920 4731 2871705
414	3968130 630 656 16627 11 290 36 528 8336 83088 455979136
415	3968760 50723 656 17240 0.1 300 3000 0 83360 830880 47364390400
416	4019483 580 656 16627 11 290 36 0 6.888e-05 0.0001032 5.9223168e-09
417	4020063 648 656 16627 11 290 36 528 8336 83088 455979136
418	4020711 50723 656 17240 0.1 300 3000 0 83360 830880 47364390400
419	4071434 616 656 16627 11 290 36 66 1042 10386 7124674
420	4072050 594 656 16627 11 290 38 0 1 2 2
421	4072644 598 656 16627 11 290 38 0 528 1056 557568
422	4073242 1037 657 17129 11 299 59 528 6120 70296 221328320
423	4074279 50750 657 17240 0.1 300 3000 0 69280 702960 23687264000
424	4125029 940 657 17129 11 299 59 0 1.856e-05 2.544e-05 3.91808e-10
425	4125969 1055 657 17129 11 299 59 528 6120 70296 221328320
426	4127024 50750 657 17240 0.1 300 3000 0 69280 702960 23687264000
427	4177774 996 657 17129 11 299 59 66 765 8787 3458255
428	4178770 955 657 17129 11 299 61 0 1 2 2
429	4179725 959 657 17129 11 299 61 0 528 1056 557568
430	4180684 435 658 17094 11 298 25 528 7504 41448 195207744
431	4181119 50763 658 17240 0.1 300 3000 0 75040 414480 19520774400
432	4231882 379 658 17094 11 298 25 0 0 0 0
433	4232261 435 658 17094 11 298 25 528 7504 41448 195207744
434	4232696 50763 658 17240 0.1 300 3000 0 75040 414480 19520774400
435	4283459 410 658 17094 11 298 25 66 938 5181 3050121
436	4283869 379 658 17094 11 298 25 0 0 0 0
437	4284248 379 658 17094 11 298 25 0 0 0 0
438	4284627 910 659 16666 11.00000592 290.00005248 36 66 1042 10386 7124674
439	4285537 1490 660 17131 11.00000592 299.00000592 59 66 765 8787 3458255
440	4287027 634 661 17095 11.00000592 298.0000188 25 66 938 5181 3050121
441	4287661 910 665 16673 11.00001592 290.00006248 36 66 1042 10386 7124674
442	4288571 910 665 16673 11.00001592 290.00006248 36 66 1042 10386 7124674
443	4289481 1490 666 17133 11.00001592 299.00001592 59 66 765 8787 3458255
444	4290971 1490 666 17133 11.00001592 299.00001592 59 66 765 8787 3458255
445	4292461 634 667 17097 11.00001592 298.0000288 25 66 938 5181 3050121
446	4293095 634 667 17097 11.00001592 298.0000288 25 66 938 5181 3050121
447	4293729 344 750 16889 11.0000796 294.000072 13 528 7976 66560 428901120
448	4294073 50893 750 17240 0.1 300 3000 0 79760 665600 42890112000
449	4344966 306 750 16889 11.0000796 294.000072 13 0 0 0 0
450	4345272 344 750 16889 11.0000796 294.000072 13 528 7976 66560 428901120
451	4345616 50893 750 17240 0.1 300 3000 0 79760 665600 42890112000
452	4396509 331 750 16889 11.0000796 294.000072 13 66 997 8320 6701580
453	4396840 306 750 16889 11.0000796 294.000072 13 0 0 0 0
454	4397146 306 750 16889 11.0000796 294.000072 13 0 0 0 0
455	4397452 330 753 16897 11.00008552 294.000086 13 66 997 8320 6701580
456	4397782 985 759 16798 11.00009336 292.0000796 38 528 8064 79584 407750784
457	4398767 50758 759 17240 0.1 300 3000 0 80640 795840 40775078400
458	4449525 897 759 16798 11.00009336 292.0000796 38 0 0 0 0
459	4450422 985 759 16798 11.00009336 292.0000796 38 528 8064 79584 407750784
460	4451407 50758 759 17240 0.1 300 3000 0 80640 795840 40775078400
461	4502165 949 759 16798 11.00009336 292.0000796 38 66 1008 9948 6371106
462	4503114 897 759 16798 11.00009336 292.0000796 38 0 0 0 0
463	4504011 897 759 16798 11.00009336 292.0000796 38 0 0 0 0
464	4504908 330 760 16899 11.00009552 294.000096 13 66 997 8320 6701580
465	4505238 330 760 16899 11.00009552 294.000096 13 66 997 8320 6701580
466	4505568 330 761 16900 11.00009552 294.000096 13 48 979 8086 6406272
467	4505898 330 763 16902 11.00009552 294.000096 13 28 959 7826 6088032
468	4506228 417 764 16903 11.00009552 294.000096 13 4.776e-05 0.0003616 0.00319976 9.34638752e-07
469	4506645 330 764 16903 11.00009552 294.000096 13 20 951 7722 5963648
470	4506975 260 764 16615 11.00009552 290 15 25 996 8310 6236938
471	4507235 960 769 16799 11.00009928 292.00008552 38 66 1008 9948 6371106
472	4508195 960 771 16801 11.00010928 292.00009552 38 66 1008 9948 6371106
473	4509155 960 771 16801 11.00010928 292.00009552 38 66 1008 9948 6371106
474	4510115 958 772 16802 11.00010928 292.00009552 38 48 990 9264 6025290
475	4511073 958 774 16804 11.00010928 292.00009552 38 28 970 8504 5669930
476	4512031 1223 775 16805 11.00010928 292.00009552 38 4.776e-05 0.00039704 0.00421368 8.830914112e-07
477	4513254 958 775 16805 11.00010928 292.00009552 38 20 962 8200 5536298
478	4514212 329 858 17109 13 299 19 42 992 10777 7732305
479	4514541 297 970 17111 13.00010928 299 17 27 996 7633 4865413
480	4514838 161 1009 15706 13.00034816 271.00027776 5 9.44e-05 0.00034816 0.00112248 2.88278176e-07
481	4514999 50998 1010 17240 0.1 300 3000 0 1600 35200 56320000
482	4565997 355 1010 17112 14 299 22 20 20 440 8800
483	4566352 50932 1106 17240 0.1 300 3000 0 1600 32000 51200000
484	4617284 323 1106 16700 15 291 20 20 20 400 8000
485	4617607 50761 1191 17240 0.1 300 3000 0 1600 36800 58880000
486	4668368 375 1191 16978 18 296 23 20 20 460 9200
487	4668743 672 1195 16980 18 296 40 28 976 10981 7844369
488	4669415 673 1199 16984 18 296 40 48 996 11781 8299609
489	4670088 712 1201 16986 18 296 40 528 8112 100008 559147840
490	4670800 50828 1201 17240 0.1 300 3000 0 81120 1000080 55914784000
491	4721628 616 1201 16986 18 296 40 0 0 0 0
492	4722244 712 1201 16986 18 296 40 528 8112 100008 559147840
493	4722956 50828 1201 17240 0.1 300 3000 0 81120 1000080 55914784000
494	4773784 674 1201 16986 18 296 40 66 1014 12501 8736685
495	4774458 616 1201 16986 18 296 40 0 0 0 0
496	4775074 616 1201 16986 18 296 40 0 0 0 0
497	4775690 1030 1203 16988 18.00000592 296.00000592 40 66 1014 12501 8736685
498	4776720 1030 1207 16992 18.00001592 296.00001592 40 66 1014 12501 8736685
499	4777750 1030 1207 16992 18.00001592 296.00001592 40 66 1014 12501 8736685
500	4778780 406 1268 17229 18.00009552 300 22 34 997 12248 9056314
501	4779186 50935 1581 17240 0.1 300 3000 0 1600 33600 53760000
502	4830121 341 1581 17113 22 299 21 20 20 420 8400
503	4830462 387 1688 16903 22.00028416 294.000096 12 9.6e-05 0.0003616 0.003152 9.323577344e-07
504	4830849 50782 1766 17240 0.1 300 3000 0 1600 32000 51200000
505	4881631 320 1766 16434 24 288 20 20 20 400 8000
506	4881951 51199 1768 17240 0.1 300 3000 0 1600 30400 48640000
507	4933150 311 1768 16977 24 296 19 20 20 380 7600
508	4933461 236 1957 15457 26.0001024 267 13 48 719 5153 2756295
509	4933697 515 2092 15455 27.00033904 266.00027872 16 5.52e-05 0.00037472 0.00334184 8.608128576e-07
510	4934212 213 2286 14712 29.00016392 248.00028224 8 640 8344 39280 268676608
511	4934425 50843 2286 17240 0.1 300 3000 0 83440 392800 26867660800
512	4985268 190 2286 14712 29.00016392 248.00028224 8 0 0 0 0
513	4985458 213 2286 14712 29.00016392 248.00028224 8 640 8344 39280 268676608
514	4985671 50843 2286 17240 0.1 300 3000 0 83440 392800 26867660800
515	5036514 206 2286 14712 29.00016392 248.00028224 8 80 1043 4910 4198072
516	5036720 190 2286 14712 29.00016392 248.00028224 8 0 0 0 0
517	5036910 190 2286 14712 29.00016392 248.00028224 8 0 0 0 0
518	5037100 206 2287 14713 29.00017672 248.00036632 8 80 1043 4910 4198072
519	5037306 206 2289 14715 29.00018672 248.00037632 8 80 1043 4910 4198072
520	5037512 206 2289 14715 29.00018672 248.00037632 8 80 1043 4910 4198072
521	5037718 206 2290 14716 29.00018672 248.00037632 8 62 1025 4766 4023904
522	5037924 206 2292 14718 29.00018672 248.00037632 8 42 1005 4606 3836464
523	5038130 258 2293 14719 29.00018672 248.00037632 8 6.816e-05 0.00037632 0.00191168 5.781139456e-07
524	5038388 205 2293 14719 29.00018672 248.00037632 8 34 997 4542 3763280
525	5038593 258 2293 14719 29.00018672 248.00037632 8 6.816e-05 0.00037632 0.00191168 5.781139456e-07
526	5038851 329 2315 17029 30 297 18 58 960 8612 5418760
527	5039180 370 2403 17231 30.00009552 300 19 117 885 9525 6142949
528	5039550 754 2456 17228 30.00030528 299.0003864 23 3.296e-05 0.0003864 0.00424952 9.80969376e-07
529	5040304 193 2650 14406 34.00037296 245.00004128 6 4.128e-05 0.00027744 0.000936 1.982485504e-07
530	5040497 686 3272 17214 43.00016224 299.00022688 21 7.072e-05 0.00036768 0.00520096 1.488020992e-06
531	5041183 458 3440 15746 45.0003544 274.0002528 14 7.536e-05 0.00039704 0.00306744 8.283469888e-07
532	5041641 297 5875 16833 86 294 17 77 968 10201 7662033
533	5041938 50928 5875 17240 0.1 300 3000 0 77440 816080 49037011200
534	5092866 297 5875 16833 86 294 17 77 968 10201 7662033
535	5093163 82 8196 13455 127.0001776 226.00004808 3 1904 6456 12104 59322688
536	5093245 51044 8196 17240 0.1 300 3000 0 64560 121040 5932268800
537	5144289 73 8196 13455 127.0001776 226.00004808 3 0 0 0 0
538	5144362 82 8196 13455 127.0001776 226.00004808 3 1904 6456 12104 59322688
539	5144444 51044 8196 17240 0.1 300 3000 0 64560 121040 5932268800
540	5195488 79 8196 13455 127.0001776 226.00004808 3 238 807 1513 926917
541	5195567 73 8196 13455 127.0001776 226.00004808 3 0 0 0 0
542	5195640 73 8196 13455 127.0001776 226.00004808 3 0 0 0 0
543	5195713 79 8199 13461 127.0002428 226.00008616 3 238 807 1513 926917
544	5195792 79 8206 13463 127.0002528 226.00009616 3 238 807 1513 926917
545	5195871 79 8206 13463 127.0002528 226.00009616 3 238 807 1513 926917
546	5195950 79 8207 13464 127.0002528 226.00009616 3 220 789 1459 873421
547	5196029 79 8209 13466 127.0002528 226.00009616 3 200 769 1399 816261
548	5196108 97 8210 13467 127.0002528 226.00009616 3 5.936e-05 0.0001504 0.00030592 3.53905152e-08
549	5196205 79 8210 13467 127.0002528 226.00009616 3 192 761 1375 794069
550	5196284 97 8210 13467 127.0002528 226.00009616 3 5.936e-05 0.0001504 0.00030592 3.53905152e-08
551	5196381 122 8218 17089 128 298 7 27 892 3671 2619169
552	5196503 50899 8218 17240 0.1 300 3000 0 71360 293680 16762681600
553	5247402 122 8218 17089 128 298 7 27 892 3671 2619169

