file 502860 1670969314                                          
version 3
run General-0-20221213-23:06:03-30920
attr configname General
attr datetime 20221213-23:06:03
attr datetimef 20221213-230603
attr experiment General
attr inifile omnetpp.ini
attr iterationvars "$b1num=int(uniform(2, 5)), $b2num=int(uniform(2, 5)), $b3num=int(uniform(2, 5)), $xnum=int(uniform(1, 2))"
attr iterationvarsd b1num=int(uniform(2,_5))/b2num=int(uniform(2,_5))/b3num=int(uniform(2,_5))/xnum=int(uniform(1,_2))
attr iterationvarsf b1num=int(uniform(2,_5)),b2num=int(uniform(2,_5)),b3num=int(uniform(2,_5)),xnum=int(uniform(1,_2))-
attr measurement "$b1num=int(uniform(2, 5)), $b2num=int(uniform(2, 5)), $b3num=int(uniform(2, 5)), $xnum=int(uniform(1, 2))"
attr network Network
attr processid 30920
attr repetition 0
attr replication #0
attr resultdir results
attr runnumber 0
attr seedset 0
itervar b1num "int(uniform(2, 5))"
itervar b2num "int(uniform(2, 5))"
itervar b3num "int(uniform(2, 5))"
itervar xnum "int(uniform(1, 2))"
config image-path ../../../omnetpp-6.0.1/samples/inet4.4/images
config network Network
config sim-time-limit 300s
config output-scalar-file results/scalars.sca
config output-vector-file results/vectors.vec
config seed-0-mt 1
config *.configurator.dumpAddresses true
config *.configurator.dumpTopology true
config *.configurator.dumpLinks true
config *.configurator.dumpRoutes true
config *.configurator.config "xmldoc(\"config.xml\")"
config *.visualizer.interfaceTableVisualizer.displayInterfaceTables true
config *.visualizer.interfaceTableVisualizer.nodeFilter "\"not (*router*)\""
config *.*.ipv4.arp.typename GlobalArp
config *.*.ipv4.routingTable.netmaskRoutes "\"\""
config *.server.numApps 1
config *.server.app[0].typename ServerApp
config *.server.app[0].heartbeatThreshold 15
config *.bunker1_host_number "int(uniform(2, 5))"
config *.bunker2_host_number "int(uniform(2, 5))"
config *.bunker3_host_number "int(uniform(2, 5))"
config *.nonExist_host_number "int(uniform(1, 2))"
config *.bunker*host[*].numApps 2
config *.bunker*host[*].app[*].destAddress "\"server\""
config *.bunker*host[*].app[0].sendInterval "int(uniform(5s, 10s))"
config *.bunker*host[*].app[1].sendInterval "int(uniform(6s, 12s))"
config *.bunker*host[*].app[0].typename HeartBeatApp
config *.bunker*host[*].app[1].typename ClientApp
config *.bunker*host[*].app[1].bunker1_host_number "int(uniform(2, 5))"
config *.bunker*host[*].app[1].bunker2_host_number "int(uniform(2, 5))"
config *.bunker*host[*].app[1].bunker3_host_number "int(uniform(2, 5))"
config *.bunker*host[*].app[1].nonExist_host_number "int(uniform(1, 2))"

vector 0 Network.server.udp passedUpPk:vector(count) ETV
attr interpolationmode none
attr recordingmode vector(count)
attr source packetSentToUpper
attr title "packets passed up, count"
vector 1 Network.server.udp droppedPkWrongPort:vector(count) ETV
attr interpolationmode none
attr recordingmode vector(count)
attr source packetDropReasonIsNoPortFound(packetDropped)
attr title "packets dropped (wrong port), count"
vector 2 Network.server.udp droppedPkBadChecksum:vector(count) ETV
attr interpolationmode none
attr recordingmode vector(count)
attr source packetDropReasonIsIncorrectlyReceived(packetDropped)
attr title "packets dropped (checksum error), count"
vector 3 Network.bunker1host[0].udp passedUpPk:vector(count) ETV
attr interpolationmode none
attr recordingmode vector(count)
attr source packetSentToUpper
attr title "packets passed up, count"
vector 4 Network.bunker1host[0].udp droppedPkWrongPort:vector(count) ETV
attr interpolationmode none
attr recordingmode vector(count)
attr source packetDropReasonIsNoPortFound(packetDropped)
attr title "packets dropped (wrong port), count"
vector 5 Network.bunker1host[0].udp droppedPkBadChecksum:vector(count) ETV
attr interpolationmode none
attr recordingmode vector(count)
attr source packetDropReasonIsIncorrectlyReceived(packetDropped)
attr title "packets dropped (checksum error), count"
vector 6 Network.bunker1host[1].udp passedUpPk:vector(count) ETV
attr interpolationmode none
attr recordingmode vector(count)
attr source packetSentToUpper
attr title "packets passed up, count"
vector 7 Network.bunker1host[1].udp droppedPkWrongPort:vector(count) ETV
attr interpolationmode none
attr recordingmode vector(count)
attr source packetDropReasonIsNoPortFound(packetDropped)
attr title "packets dropped (wrong port), count"
vector 8 Network.bunker1host[1].udp droppedPkBadChecksum:vector(count) ETV
attr interpolationmode none
attr recordingmode vector(count)
attr source packetDropReasonIsIncorrectlyReceived(packetDropped)
attr title "packets dropped (checksum error), count"
vector 9 Network.bunker1host[2].udp passedUpPk:vector(count) ETV
attr interpolationmode none
attr recordingmode vector(count)
attr source packetSentToUpper
attr title "packets passed up, count"
vector 10 Network.bunker1host[2].udp droppedPkWrongPort:vector(count) ETV
attr interpolationmode none
attr recordingmode vector(count)
attr source packetDropReasonIsNoPortFound(packetDropped)
attr title "packets dropped (wrong port), count"
vector 11 Network.bunker1host[2].udp droppedPkBadChecksum:vector(count) ETV
attr interpolationmode none
attr recordingmode vector(count)
attr source packetDropReasonIsIncorrectlyReceived(packetDropped)
attr title "packets dropped (checksum error), count"
vector 12 Network.bunker2host[0].udp passedUpPk:vector(count) ETV
attr interpolationmode none
attr recordingmode vector(count)
attr source packetSentToUpper
attr title "packets passed up, count"
vector 13 Network.bunker2host[0].udp droppedPkWrongPort:vector(count) ETV
attr interpolationmode none
attr recordingmode vector(count)
attr source packetDropReasonIsNoPortFound(packetDropped)
attr title "packets dropped (wrong port), count"
vector 14 Network.bunker2host[0].udp droppedPkBadChecksum:vector(count) ETV
attr interpolationmode none
attr recordingmode vector(count)
attr source packetDropReasonIsIncorrectlyReceived(packetDropped)
attr title "packets dropped (checksum error), count"
vector 15 Network.bunker2host[1].udp passedUpPk:vector(count) ETV
attr interpolationmode none
attr recordingmode vector(count)
attr source packetSentToUpper
attr title "packets passed up, count"
vector 16 Network.bunker2host[1].udp droppedPkWrongPort:vector(count) ETV
attr interpolationmode none
attr recordingmode vector(count)
attr source packetDropReasonIsNoPortFound(packetDropped)
attr title "packets dropped (wrong port), count"
vector 17 Network.bunker2host[1].udp droppedPkBadChecksum:vector(count) ETV
attr interpolationmode none
attr recordingmode vector(count)
attr source packetDropReasonIsIncorrectlyReceived(packetDropped)
attr title "packets dropped (checksum error), count"
vector 18 Network.bunker2host[2].udp passedUpPk:vector(count) ETV
attr interpolationmode none
attr recordingmode vector(count)
attr source packetSentToUpper
attr title "packets passed up, count"
vector 19 Network.bunker2host[2].udp droppedPkWrongPort:vector(count) ETV
attr interpolationmode none
attr recordingmode vector(count)
attr source packetDropReasonIsNoPortFound(packetDropped)
attr title "packets dropped (wrong port), count"
vector 20 Network.bunker2host[2].udp droppedPkBadChecksum:vector(count) ETV
attr interpolationmode none
attr recordingmode vector(count)
attr source packetDropReasonIsIncorrectlyReceived(packetDropped)
attr title "packets dropped (checksum error), count"
vector 21 Network.bunker2host[3].udp passedUpPk:vector(count) ETV
attr interpolationmode none
attr recordingmode vector(count)
attr source packetSentToUpper
attr title "packets passed up, count"
vector 22 Network.bunker2host[3].udp droppedPkWrongPort:vector(count) ETV
attr interpolationmode none
attr recordingmode vector(count)
attr source packetDropReasonIsNoPortFound(packetDropped)
attr title "packets dropped (wrong port), count"
vector 23 Network.bunker2host[3].udp droppedPkBadChecksum:vector(count) ETV
attr interpolationmode none
attr recordingmode vector(count)
attr source packetDropReasonIsIncorrectlyReceived(packetDropped)
attr title "packets dropped (checksum error), count"
vector 24 Network.bunker3host[0].udp passedUpPk:vector(count) ETV
attr interpolationmode none
attr recordingmode vector(count)
attr source packetSentToUpper
attr title "packets passed up, count"
vector 25 Network.bunker3host[0].udp droppedPkWrongPort:vector(count) ETV
attr interpolationmode none
attr recordingmode vector(count)
attr source packetDropReasonIsNoPortFound(packetDropped)
attr title "packets dropped (wrong port), count"
vector 26 Network.bunker3host[0].udp droppedPkBadChecksum:vector(count) ETV
attr interpolationmode none
attr recordingmode vector(count)
attr source packetDropReasonIsIncorrectlyReceived(packetDropped)
attr title "packets dropped (checksum error), count"
vector 27 Network.bunker3host[1].udp passedUpPk:vector(count) ETV
attr interpolationmode none
attr recordingmode vector(count)
attr source packetSentToUpper
attr title "packets passed up, count"
vector 28 Network.bunker3host[1].udp droppedPkWrongPort:vector(count) ETV
attr interpolationmode none
attr recordingmode vector(count)
attr source packetDropReasonIsNoPortFound(packetDropped)
attr title "packets dropped (wrong port), count"
vector 29 Network.bunker3host[1].udp droppedPkBadChecksum:vector(count) ETV
attr interpolationmode none
attr recordingmode vector(count)
attr source packetDropReasonIsIncorrectlyReceived(packetDropped)
attr title "packets dropped (checksum error), count"
vector 30 Network.bunker3host[2].udp passedUpPk:vector(count) ETV
attr interpolationmode none
attr recordingmode vector(count)
attr source packetSentToUpper
attr title "packets passed up, count"
vector 31 Network.bunker3host[2].udp droppedPkWrongPort:vector(count) ETV
attr interpolationmode none
attr recordingmode vector(count)
attr source packetDropReasonIsNoPortFound(packetDropped)
attr title "packets dropped (wrong port), count"
vector 32 Network.bunker3host[2].udp droppedPkBadChecksum:vector(count) ETV
attr interpolationmode none
attr recordingmode vector(count)
attr source packetDropReasonIsIncorrectlyReceived(packetDropped)
attr title "packets dropped (checksum error), count"
vector 33 Network.bunker3host[3].udp passedUpPk:vector(count) ETV
attr interpolationmode none
attr recordingmode vector(count)
attr source packetSentToUpper
attr title "packets passed up, count"
vector 34 Network.bunker3host[3].udp droppedPkWrongPort:vector(count) ETV
attr interpolationmode none
attr recordingmode vector(count)
attr source packetDropReasonIsNoPortFound(packetDropped)
attr title "packets dropped (wrong port), count"
vector 35 Network.bunker3host[3].udp droppedPkBadChecksum:vector(count) ETV
attr interpolationmode none
attr recordingmode vector(count)
attr source packetDropReasonIsIncorrectlyReceived(packetDropped)
attr title "packets dropped (checksum error), count"
vector 36 Network.bunker3host[2].udp packetSent:vector(packetBytes) ETV
attr interpolationmode none
attr recordingmode vector(packetBytes)
attr source packetSent
attr title "packets sent, packetBytes"
vector 37 Network.bunker3host[2].ethernet encapPk:vector(packetBytes) ETV
attr interpolationmode none
attr recordingmode vector(packetBytes)
attr source encapPk
attr title "packets encapsulated, packetBytes"
vector 38 Network.bunker3host[2].eth[0].queue incomingPacketLengths:vector ETV
attr interpolationmode none
attr recordingmode vector
attr source packetLength(packetPushStarted)
attr title "incoming packet lengths"
attr unit b
vector 39 Network.bunker3host[2].eth[0].queue incomingDataRate:vector ETV
attr interpolationmode linear
attr recordingmode vector
attr source throughput(packetPushStarted)
attr title "incoming datarate"
attr unit bps
vector 40 Network.bunker3host[2].eth[0].queue queueingTime:vector ETV
attr interpolationmode none
attr recordingmode vector
attr source queueingTime(packetPulled)
attr title "queueing times"
attr unit s
vector 41 Network.bunker3host[2].eth[0].queue outgoingPacketLengths:vector ETV
attr interpolationmode none
attr recordingmode vector
attr source packetLength(packetPulled)
attr title "outgoing packet lengths"
attr unit b
vector 42 Network.bunker3host[2].eth[0].queue outgoingDataRate:vector ETV
attr interpolationmode linear
attr recordingmode vector
attr source throughput(packetPulled)
attr title "outgoing datarate"
attr unit bps
vector 43 Network.bunker3host[2].eth[0].mac packetReceivedFromUpper:vector(packetBytes) ETV
attr interpolationmode none
attr recordingmode vector(packetBytes)
attr source packetReceivedFromUpper
attr title "packet bytes from higher layer, packetBytes"
vector 44 Network.bunker3host[2].eth[0].queue queueLength:vector ETV
attr autoWarmupFilter false
attr interpolationmode sample-hold
attr recordingmode vector
attr source "warmup(atomic(constant0(packetPushEnded) + count(packetPushStarted) - count(packetPulled) - count(packetRemoved) - count(packetDropped)))"
attr title "queue length"
attr unit pk
vector 45 Network.bunker3host[2].eth[0].queue queueBitLength:vector ETV
attr autoWarmupFilter false
attr interpolationmode sample-hold
attr recordingmode vector
attr source "warmup(atomic(constant0(packetPushEnded) + sum(packetLength(packetPushStarted)) - sum(packetLength(packetPulled)) - sum(packetLength(packetRemoved)) - sum(packetLength(packetDropped))))"
attr title "queue bit length"
attr unit b
vector 46 Network.bunker3host[2].eth[0].mac txPk:vector(packetBytes) ETV
attr interpolationmode none
attr recordingmode vector(packetBytes)
attr source packetSentToLower
attr title "packets transmitted, packetBytes"
vector 47 Network.bunker3router.eth[3].mac rxPkOk:vector(packetBytes) ETV
attr interpolationmode none
attr recordingmode vector(packetBytes)
attr source rxPkOk
attr title "packets received OK, packetBytes"
vector 48 Network.bunker3router.eth[3].mac passedUpPk:vector(packetBytes) ETV
attr interpolationmode none
attr recordingmode vector(packetBytes)
attr source packetSentToUpper
attr title "packets passed to higher layer, packetBytes"
vector 49 Network.bunker3router.ethernet decapPk:vector(packetBytes) ETV
attr interpolationmode none
attr recordingmode vector(packetBytes)
attr source decapPk
attr title "packets decapsulated, packetBytes"
vector 50 Network.bunker3router.ethernet encapPk:vector(packetBytes) ETV
attr interpolationmode none
attr recordingmode vector(packetBytes)
attr source encapPk
attr title "packets encapsulated, packetBytes"
vector 51 Network.bunker3router.eth[0].queue incomingPacketLengths:vector ETV
attr interpolationmode none
attr recordingmode vector
attr source packetLength(packetPushStarted)
attr title "incoming packet lengths"
attr unit b
vector 52 Network.bunker3router.eth[0].queue incomingDataRate:vector ETV
attr interpolationmode linear
attr recordingmode vector
attr source throughput(packetPushStarted)
attr title "incoming datarate"
attr unit bps
vector 53 Network.bunker3router.eth[0].queue queueingTime:vector ETV
attr interpolationmode none
attr recordingmode vector
attr source queueingTime(packetPulled)
attr title "queueing times"
attr unit s
vector 54 Network.bunker3router.eth[0].queue outgoingPacketLengths:vector ETV
attr interpolationmode none
attr recordingmode vector
attr source packetLength(packetPulled)
attr title "outgoing packet lengths"
attr unit b
vector 55 Network.bunker3router.eth[0].queue outgoingDataRate:vector ETV
attr interpolationmode linear
attr recordingmode vector
attr source throughput(packetPulled)
attr title "outgoing datarate"
attr unit bps
vector 56 Network.bunker3router.eth[0].mac packetReceivedFromUpper:vector(packetBytes) ETV
attr interpolationmode none
attr recordingmode vector(packetBytes)
attr source packetReceivedFromUpper
attr title "packet bytes from higher layer, packetBytes"
vector 57 Network.bunker3router.eth[0].queue queueLength:vector ETV
attr autoWarmupFilter false
attr interpolationmode sample-hold
attr recordingmode vector
attr source "warmup(atomic(constant0(packetPushEnded) + count(packetPushStarted) - count(packetPulled) - count(packetRemoved) - count(packetDropped)))"
attr title "queue length"
attr unit pk
vector 58 Network.bunker3router.eth[0].queue queueBitLength:vector ETV
attr autoWarmupFilter false
attr interpolationmode sample-hold
attr recordingmode vector
attr source "warmup(atomic(constant0(packetPushEnded) + sum(packetLength(packetPushStarted)) - sum(packetLength(packetPulled)) - sum(packetLength(packetRemoved)) - sum(packetLength(packetDropped))))"
attr title "queue bit length"
attr unit b
vector 59 Network.bunker3router.eth[0].mac txPk:vector(packetBytes) ETV
attr interpolationmode none
attr recordingmode vector(packetBytes)
attr source packetSentToLower
attr title "packets transmitted, packetBytes"
vector 60 Network.mainrouter.eth[2].mac rxPkOk:vector(packetBytes) ETV
attr interpolationmode none
attr recordingmode vector(packetBytes)
attr source rxPkOk
attr title "packets received OK, packetBytes"
vector 61 Network.mainrouter.eth[2].mac passedUpPk:vector(packetBytes) ETV
attr interpolationmode none
attr recordingmode vector(packetBytes)
attr source packetSentToUpper
attr title "packets passed to higher layer, packetBytes"
vector 62 Network.mainrouter.ethernet decapPk:vector(packetBytes) ETV
attr interpolationmode none
attr recordingmode vector(packetBytes)
attr source decapPk
attr title "packets decapsulated, packetBytes"
vector 63 Network.mainrouter.ethernet encapPk:vector(packetBytes) ETV
attr interpolationmode none
attr recordingmode vector(packetBytes)
attr source encapPk
attr title "packets encapsulated, packetBytes"
vector 64 Network.mainrouter.eth[3].queue incomingPacketLengths:vector ETV
attr interpolationmode none
attr recordingmode vector
attr source packetLength(packetPushStarted)
attr title "incoming packet lengths"
attr unit b
vector 65 Network.mainrouter.eth[3].queue incomingDataRate:vector ETV
attr interpolationmode linear
attr recordingmode vector
attr source throughput(packetPushStarted)
attr title "incoming datarate"
attr unit bps
vector 66 Network.mainrouter.eth[3].queue queueingTime:vector ETV
attr interpolationmode none
attr recordingmode vector
attr source queueingTime(packetPulled)
attr title "queueing times"
attr unit s
vector 67 Network.mainrouter.eth[3].queue outgoingPacketLengths:vector ETV
attr interpolationmode none
attr recordingmode vector
attr source packetLength(packetPulled)
attr title "outgoing packet lengths"
attr unit b
vector 68 Network.mainrouter.eth[3].queue outgoingDataRate:vector ETV
attr interpolationmode linear
attr recordingmode vector
attr source throughput(packetPulled)
attr title "outgoing datarate"
attr unit bps
vector 69 Network.mainrouter.eth[3].mac packetReceivedFromUpper:vector(packetBytes) ETV
attr interpolationmode none
attr recordingmode vector(packetBytes)
attr source packetReceivedFromUpper
attr title "packet bytes from higher layer, packetBytes"
vector 70 Network.mainrouter.eth[3].queue queueLength:vector ETV
attr autoWarmupFilter false
attr interpolationmode sample-hold
attr recordingmode vector
attr source "warmup(atomic(constant0(packetPushEnded) + count(packetPushStarted) - count(packetPulled) - count(packetRemoved) - count(packetDropped)))"
attr title "queue length"
attr unit pk
vector 71 Network.mainrouter.eth[3].queue queueBitLength:vector ETV
attr autoWarmupFilter false
attr interpolationmode sample-hold
attr recordingmode vector
attr source "warmup(atomic(constant0(packetPushEnded) + sum(packetLength(packetPushStarted)) - sum(packetLength(packetPulled)) - sum(packetLength(packetRemoved)) - sum(packetLength(packetDropped))))"
attr title "queue bit length"
attr unit b
vector 72 Network.mainrouter.eth[3].mac txPk:vector(packetBytes) ETV
attr interpolationmode none
attr recordingmode vector(packetBytes)
attr source packetSentToLower
attr title "packets transmitted, packetBytes"
vector 73 Network.server.eth[0].mac rxPkOk:vector(packetBytes) ETV
attr interpolationmode none
attr recordingmode vector(packetBytes)
attr source rxPkOk
attr title "packets received OK, packetBytes"
vector 74 Network.server.eth[0].mac passedUpPk:vector(packetBytes) ETV
attr interpolationmode none
attr recordingmode vector(packetBytes)
attr source packetSentToUpper
attr title "packets passed to higher layer, packetBytes"
vector 75 Network.server.ethernet decapPk:vector(packetBytes) ETV
attr interpolationmode none
attr recordingmode vector(packetBytes)
attr source decapPk
attr title "packets decapsulated, packetBytes"
vector 76 Network.server.udp packetReceived:vector(packetBytes) ETV
attr interpolationmode none
attr recordingmode vector(packetBytes)
attr source packetReceived
attr title "packets received, packetBytes"
vector 77 Network.bunker2host[0].udp packetSent:vector(packetBytes) ETV
attr interpolationmode none
attr recordingmode vector(packetBytes)
attr source packetSent
attr title "packets sent, packetBytes"
vector 78 Network.bunker2host[1].udp packetSent:vector(packetBytes) ETV
attr interpolationmode none
attr recordingmode vector(packetBytes)
attr source packetSent
attr title "packets sent, packetBytes"
vector 79 Network.bunker2host[0].ethernet encapPk:vector(packetBytes) ETV
attr interpolationmode none
attr recordingmode vector(packetBytes)
attr source encapPk
attr title "packets encapsulated, packetBytes"
vector 80 Network.bunker2host[1].ethernet encapPk:vector(packetBytes) ETV
attr interpolationmode none
attr recordingmode vector(packetBytes)
attr source encapPk
attr title "packets encapsulated, packetBytes"
vector 81 Network.bunker2host[0].eth[0].queue incomingPacketLengths:vector ETV
attr interpolationmode none
attr recordingmode vector
attr source packetLength(packetPushStarted)
attr title "incoming packet lengths"
attr unit b
vector 82 Network.bunker2host[0].eth[0].queue incomingDataRate:vector ETV
attr interpolationmode linear
attr recordingmode vector
attr source throughput(packetPushStarted)
attr title "incoming datarate"
attr unit bps
vector 83 Network.bunker2host[0].eth[0].queue queueingTime:vector ETV
attr interpolationmode none
attr recordingmode vector
attr source queueingTime(packetPulled)
attr title "queueing times"
attr unit s
vector 84 Network.bunker2host[0].eth[0].queue outgoingPacketLengths:vector ETV
attr interpolationmode none
attr recordingmode vector
attr source packetLength(packetPulled)
attr title "outgoing packet lengths"
attr unit b
vector 85 Network.bunker2host[0].eth[0].queue outgoingDataRate:vector ETV
attr interpolationmode linear
attr recordingmode vector
attr source throughput(packetPulled)
attr title "outgoing datarate"
attr unit bps
vector 86 Network.bunker2host[0].eth[0].mac packetReceivedFromUpper:vector(packetBytes) ETV
attr interpolationmode none
attr recordingmode vector(packetBytes)
attr source packetReceivedFromUpper
attr title "packet bytes from higher layer, packetBytes"
vector 87 Network.bunker2host[0].eth[0].queue queueLength:vector ETV
attr autoWarmupFilter false
attr interpolationmode sample-hold
attr recordingmode vector
attr source "warmup(atomic(constant0(packetPushEnded) + count(packetPushStarted) - count(packetPulled) - count(packetRemoved) - count(packetDropped)))"
attr title "queue length"
attr unit pk
vector 88 Network.bunker2host[0].eth[0].queue queueBitLength:vector ETV
attr autoWarmupFilter false
attr interpolationmode sample-hold
attr recordingmode vector
attr source "warmup(atomic(constant0(packetPushEnded) + sum(packetLength(packetPushStarted)) - sum(packetLength(packetPulled)) - sum(packetLength(packetRemoved)) - sum(packetLength(packetDropped))))"
attr title "queue bit length"
attr unit b
vector 89 Network.bunker2host[1].eth[0].queue incomingPacketLengths:vector ETV
attr interpolationmode none
attr recordingmode vector
attr source packetLength(packetPushStarted)
attr title "incoming packet lengths"
attr unit b
vector 90 Network.bunker2host[1].eth[0].queue incomingDataRate:vector ETV
attr interpolationmode linear
attr recordingmode vector
attr source throughput(packetPushStarted)
attr title "incoming datarate"
attr unit bps
vector 91 Network.bunker2host[1].eth[0].queue queueingTime:vector ETV
attr interpolationmode none
attr recordingmode vector
attr source queueingTime(packetPulled)
attr title "queueing times"
attr unit s
vector 92 Network.bunker2host[1].eth[0].queue outgoingPacketLengths:vector ETV
attr interpolationmode none
attr recordingmode vector
attr source packetLength(packetPulled)
attr title "outgoing packet lengths"
attr unit b
vector 93 Network.bunker2host[1].eth[0].queue outgoingDataRate:vector ETV
attr interpolationmode linear
attr recordingmode vector
attr source throughput(packetPulled)
attr title "outgoing datarate"
attr unit bps
vector 94 Network.bunker2host[1].eth[0].mac packetReceivedFromUpper:vector(packetBytes) ETV
attr interpolationmode none
attr recordingmode vector(packetBytes)
attr source packetReceivedFromUpper
attr title "packet bytes from higher layer, packetBytes"
vector 95 Network.bunker2host[1].eth[0].queue queueLength:vector ETV
attr autoWarmupFilter false
attr interpolationmode sample-hold
attr recordingmode vector
attr source "warmup(atomic(constant0(packetPushEnded) + count(packetPushStarted) - count(packetPulled) - count(packetRemoved) - count(packetDropped)))"
attr title "queue length"
attr unit pk
vector 96 Network.bunker2host[1].eth[0].queue queueBitLength:vector ETV
attr autoWarmupFilter false
attr interpolationmode sample-hold
attr recordingmode vector
attr source "warmup(atomic(constant0(packetPushEnded) + sum(packetLength(packetPushStarted)) - sum(packetLength(packetPulled)) - sum(packetLength(packetRemoved)) - sum(packetLength(packetDropped))))"
attr title "queue bit length"
attr unit b
vector 97 Network.bunker2host[0].eth[0].mac txPk:vector(packetBytes) ETV
attr interpolationmode none
attr recordingmode vector(packetBytes)
attr source packetSentToLower
attr title "packets transmitted, packetBytes"
vector 98 Network.bunker2host[1].eth[0].mac txPk:vector(packetBytes) ETV
attr interpolationmode none
attr recordingmode vector(packetBytes)
attr source packetSentToLower
attr title "packets transmitted, packetBytes"
vector 99 Network.bunker2router.eth[1].mac rxPkOk:vector(packetBytes) ETV
attr interpolationmode none
attr recordingmode vector(packetBytes)
attr source rxPkOk
attr title "packets received OK, packetBytes"
vector 100 Network.bunker2router.eth[1].mac passedUpPk:vector(packetBytes) ETV
attr interpolationmode none
attr recordingmode vector(packetBytes)
attr source packetSentToUpper
attr title "packets passed to higher layer, packetBytes"
vector 101 Network.bunker2router.eth[2].mac rxPkOk:vector(packetBytes) ETV
attr interpolationmode none
attr recordingmode vector(packetBytes)
attr source rxPkOk
attr title "packets received OK, packetBytes"
vector 102 Network.bunker2router.eth[2].mac passedUpPk:vector(packetBytes) ETV
attr interpolationmode none
attr recordingmode vector(packetBytes)
attr source packetSentToUpper
attr title "packets passed to higher layer, packetBytes"
vector 103 Network.bunker2router.ethernet decapPk:vector(packetBytes) ETV
attr interpolationmode none
attr recordingmode vector(packetBytes)
attr source decapPk
attr title "packets decapsulated, packetBytes"
vector 104 Network.bunker2router.ethernet encapPk:vector(packetBytes) ETV
attr interpolationmode none
attr recordingmode vector(packetBytes)
attr source encapPk
attr title "packets encapsulated, packetBytes"
vector 105 Network.bunker2router.eth[0].queue incomingPacketLengths:vector ETV
attr interpolationmode none
attr recordingmode vector
attr source packetLength(packetPushStarted)
attr title "incoming packet lengths"
attr unit b
vector 106 Network.bunker2router.eth[0].queue incomingDataRate:vector ETV
attr interpolationmode linear
attr recordingmode vector
attr source throughput(packetPushStarted)
attr title "incoming datarate"
attr unit bps
vector 107 Network.bunker2router.eth[0].queue queueingTime:vector ETV
attr interpolationmode none
attr recordingmode vector
attr source queueingTime(packetPulled)
attr title "queueing times"
attr unit s
vector 108 Network.bunker2router.eth[0].queue outgoingPacketLengths:vector ETV
attr interpolationmode none
attr recordingmode vector
attr source packetLength(packetPulled)
attr title "outgoing packet lengths"
attr unit b
vector 109 Network.bunker2router.eth[0].queue outgoingDataRate:vector ETV
attr interpolationmode linear
attr recordingmode vector
attr source throughput(packetPulled)
attr title "outgoing datarate"
attr unit bps
vector 110 Network.bunker2router.eth[0].mac packetReceivedFromUpper:vector(packetBytes) ETV
attr interpolationmode none
attr recordingmode vector(packetBytes)
attr source packetReceivedFromUpper
attr title "packet bytes from higher layer, packetBytes"
vector 111 Network.bunker2router.eth[0].queue queueLength:vector ETV
attr autoWarmupFilter false
attr interpolationmode sample-hold
attr recordingmode vector
attr source "warmup(atomic(constant0(packetPushEnded) + count(packetPushStarted) - count(packetPulled) - count(packetRemoved) - count(packetDropped)))"
attr title "queue length"
attr unit pk
vector 112 Network.bunker2router.eth[0].queue queueBitLength:vector ETV
attr autoWarmupFilter false
attr interpolationmode sample-hold
attr recordingmode vector
attr source "warmup(atomic(constant0(packetPushEnded) + sum(packetLength(packetPushStarted)) - sum(packetLength(packetPulled)) - sum(packetLength(packetRemoved)) - sum(packetLength(packetDropped))))"
attr title "queue bit length"
attr unit b
vector 113 Network.bunker2router.eth[0].mac txPk:vector(packetBytes) ETV
attr interpolationmode none
attr recordingmode vector(packetBytes)
attr source packetSentToLower
attr title "packets transmitted, packetBytes"
vector 114 Network.mainrouter.eth[1].mac rxPkOk:vector(packetBytes) ETV
attr interpolationmode none
attr recordingmode vector(packetBytes)
attr source rxPkOk
attr title "packets received OK, packetBytes"
vector 115 Network.mainrouter.eth[1].mac passedUpPk:vector(packetBytes) ETV
attr interpolationmode none
attr recordingmode vector(packetBytes)
attr source packetSentToUpper
attr title "packets passed to higher layer, packetBytes"
vector 116 Network.bunker2host[2].udp packetSent:vector(packetBytes) ETV
attr interpolationmode none
attr recordingmode vector(packetBytes)
attr source packetSent
attr title "packets sent, packetBytes"
vector 117 Network.bunker2host[3].udp packetSent:vector(packetBytes) ETV
attr interpolationmode none
attr recordingmode vector(packetBytes)
attr source packetSent
attr title "packets sent, packetBytes"
vector 118 Network.bunker3host[1].udp packetSent:vector(packetBytes) ETV
attr interpolationmode none
attr recordingmode vector(packetBytes)
attr source packetSent
attr title "packets sent, packetBytes"
vector 119 Network.bunker2host[2].ethernet encapPk:vector(packetBytes) ETV
attr interpolationmode none
attr recordingmode vector(packetBytes)
attr source encapPk
attr title "packets encapsulated, packetBytes"
vector 120 Network.bunker2host[3].ethernet encapPk:vector(packetBytes) ETV
attr interpolationmode none
attr recordingmode vector(packetBytes)
attr source encapPk
attr title "packets encapsulated, packetBytes"
vector 121 Network.bunker3host[1].ethernet encapPk:vector(packetBytes) ETV
attr interpolationmode none
attr recordingmode vector(packetBytes)
attr source encapPk
attr title "packets encapsulated, packetBytes"
vector 122 Network.bunker2host[2].eth[0].queue incomingPacketLengths:vector ETV
attr interpolationmode none
attr recordingmode vector
attr source packetLength(packetPushStarted)
attr title "incoming packet lengths"
attr unit b
vector 123 Network.bunker2host[2].eth[0].queue incomingDataRate:vector ETV
attr interpolationmode linear
attr recordingmode vector
attr source throughput(packetPushStarted)
attr title "incoming datarate"
attr unit bps
vector 124 Network.bunker2host[2].eth[0].queue queueingTime:vector ETV
attr interpolationmode none
attr recordingmode vector
attr source queueingTime(packetPulled)
attr title "queueing times"
attr unit s
vector 125 Network.bunker2host[2].eth[0].queue outgoingPacketLengths:vector ETV
attr interpolationmode none
attr recordingmode vector
attr source packetLength(packetPulled)
attr title "outgoing packet lengths"
attr unit b
vector 126 Network.bunker2host[2].eth[0].queue outgoingDataRate:vector ETV
attr interpolationmode linear
attr recordingmode vector
attr source throughput(packetPulled)
attr title "outgoing datarate"
attr unit bps
vector 127 Network.bunker2host[2].eth[0].mac packetReceivedFromUpper:vector(packetBytes) ETV
attr interpolationmode none
attr recordingmode vector(packetBytes)
attr source packetReceivedFromUpper
attr title "packet bytes from higher layer, packetBytes"
vector 128 Network.bunker2host[2].eth[0].queue queueLength:vector ETV
attr autoWarmupFilter false
attr interpolationmode sample-hold
attr recordingmode vector
attr source "warmup(atomic(constant0(packetPushEnded) + count(packetPushStarted) - count(packetPulled) - count(packetRemoved) - count(packetDropped)))"
attr title "queue length"
attr unit pk
vector 129 Network.bunker2host[2].eth[0].queue queueBitLength:vector ETV
attr autoWarmupFilter false
attr interpolationmode sample-hold
attr recordingmode vector
attr source "warmup(atomic(constant0(packetPushEnded) + sum(packetLength(packetPushStarted)) - sum(packetLength(packetPulled)) - sum(packetLength(packetRemoved)) - sum(packetLength(packetDropped))))"
attr title "queue bit length"
attr unit b
vector 130 Network.bunker2host[3].eth[0].queue incomingPacketLengths:vector ETV
attr interpolationmode none
attr recordingmode vector
attr source packetLength(packetPushStarted)
attr title "incoming packet lengths"
attr unit b
vector 131 Network.bunker2host[3].eth[0].queue incomingDataRate:vector ETV
attr interpolationmode linear
attr recordingmode vector
attr source throughput(packetPushStarted)
attr title "incoming datarate"
attr unit bps
vector 132 Network.bunker2host[3].eth[0].queue queueingTime:vector ETV
attr interpolationmode none
attr recordingmode vector
attr source queueingTime(packetPulled)
attr title "queueing times"
attr unit s
vector 133 Network.bunker2host[3].eth[0].queue outgoingPacketLengths:vector ETV
attr interpolationmode none
attr recordingmode vector
attr source packetLength(packetPulled)
attr title "outgoing packet lengths"
attr unit b
vector 134 Network.bunker2host[3].eth[0].queue outgoingDataRate:vector ETV
attr interpolationmode linear
attr recordingmode vector
attr source throughput(packetPulled)
attr title "outgoing datarate"
attr unit bps
vector 135 Network.bunker2host[3].eth[0].mac packetReceivedFromUpper:vector(packetBytes) ETV
attr interpolationmode none
attr recordingmode vector(packetBytes)
attr source packetReceivedFromUpper
attr title "packet bytes from higher layer, packetBytes"
vector 136 Network.bunker2host[3].eth[0].queue queueLength:vector ETV
attr autoWarmupFilter false
attr interpolationmode sample-hold
attr recordingmode vector
attr source "warmup(atomic(constant0(packetPushEnded) + count(packetPushStarted) - count(packetPulled) - count(packetRemoved) - count(packetDropped)))"
attr title "queue length"
attr unit pk
vector 137 Network.bunker2host[3].eth[0].queue queueBitLength:vector ETV
attr autoWarmupFilter false
attr interpolationmode sample-hold
attr recordingmode vector
attr source "warmup(atomic(constant0(packetPushEnded) + sum(packetLength(packetPushStarted)) - sum(packetLength(packetPulled)) - sum(packetLength(packetRemoved)) - sum(packetLength(packetDropped))))"
attr title "queue bit length"
attr unit b
vector 138 Network.bunker3host[1].eth[0].queue incomingPacketLengths:vector ETV
attr interpolationmode none
attr recordingmode vector
attr source packetLength(packetPushStarted)
attr title "incoming packet lengths"
attr unit b
vector 139 Network.bunker3host[1].eth[0].queue incomingDataRate:vector ETV
attr interpolationmode linear
attr recordingmode vector
attr source throughput(packetPushStarted)
attr title "incoming datarate"
attr unit bps
vector 140 Network.bunker3host[1].eth[0].queue queueingTime:vector ETV
attr interpolationmode none
attr recordingmode vector
attr source queueingTime(packetPulled)
attr title "queueing times"
attr unit s
vector 141 Network.bunker3host[1].eth[0].queue outgoingPacketLengths:vector ETV
attr interpolationmode none
attr recordingmode vector
attr source packetLength(packetPulled)
attr title "outgoing packet lengths"
attr unit b
vector 142 Network.bunker3host[1].eth[0].queue outgoingDataRate:vector ETV
attr interpolationmode linear
attr recordingmode vector
attr source throughput(packetPulled)
attr title "outgoing datarate"
attr unit bps
vector 143 Network.bunker3host[1].eth[0].mac packetReceivedFromUpper:vector(packetBytes) ETV
attr interpolationmode none
attr recordingmode vector(packetBytes)
attr source packetReceivedFromUpper
attr title "packet bytes from higher layer, packetBytes"
vector 144 Network.bunker3host[1].eth[0].queue queueLength:vector ETV
attr autoWarmupFilter false
attr interpolationmode sample-hold
attr recordingmode vector
attr source "warmup(atomic(constant0(packetPushEnded) + count(packetPushStarted) - count(packetPulled) - count(packetRemoved) - count(packetDropped)))"
attr title "queue length"
attr unit pk
vector 145 Network.bunker3host[1].eth[0].queue queueBitLength:vector ETV
attr autoWarmupFilter false
attr interpolationmode sample-hold
attr recordingmode vector
attr source "warmup(atomic(constant0(packetPushEnded) + sum(packetLength(packetPushStarted)) - sum(packetLength(packetPulled)) - sum(packetLength(packetRemoved)) - sum(packetLength(packetDropped))))"
attr title "queue bit length"
attr unit b
vector 146 Network.bunker2host[2].eth[0].mac txPk:vector(packetBytes) ETV
attr interpolationmode none
attr recordingmode vector(packetBytes)
attr source packetSentToLower
attr title "packets transmitted, packetBytes"
vector 147 Network.bunker2host[3].eth[0].mac txPk:vector(packetBytes) ETV
attr interpolationmode none
attr recordingmode vector(packetBytes)
attr source packetSentToLower
attr title "packets transmitted, packetBytes"
vector 148 Network.bunker3host[1].eth[0].mac txPk:vector(packetBytes) ETV
attr interpolationmode none
attr recordingmode vector(packetBytes)
attr source packetSentToLower
attr title "packets transmitted, packetBytes"
vector 149 Network.bunker2router.eth[3].mac rxPkOk:vector(packetBytes) ETV
attr interpolationmode none
attr recordingmode vector(packetBytes)
attr source rxPkOk
attr title "packets received OK, packetBytes"
vector 150 Network.bunker2router.eth[3].mac passedUpPk:vector(packetBytes) ETV
attr interpolationmode none
attr recordingmode vector(packetBytes)
attr source packetSentToUpper
attr title "packets passed to higher layer, packetBytes"
vector 151 Network.bunker2router.eth[4].mac rxPkOk:vector(packetBytes) ETV
attr interpolationmode none
attr recordingmode vector(packetBytes)
attr source rxPkOk
attr title "packets received OK, packetBytes"
vector 152 Network.bunker2router.eth[4].mac passedUpPk:vector(packetBytes) ETV
attr interpolationmode none
attr recordingmode vector(packetBytes)
attr source packetSentToUpper
attr title "packets passed to higher layer, packetBytes"
vector 153 Network.bunker3router.eth[2].mac rxPkOk:vector(packetBytes) ETV
attr interpolationmode none
attr recordingmode vector(packetBytes)
attr source rxPkOk
attr title "packets received OK, packetBytes"
vector 154 Network.bunker3router.eth[2].mac passedUpPk:vector(packetBytes) ETV
attr interpolationmode none
attr recordingmode vector(packetBytes)
attr source packetSentToUpper
attr title "packets passed to higher layer, packetBytes"
vector 155 Network.server.app[0] successfulLookup:vector ETV
attr interpolationmode linear
attr recordingmode vector
attr source successfulLookup
attr title "Successful Lookup Count"
vector 156 Network.server.udp packetSent:vector(packetBytes) ETV
attr interpolationmode none
attr recordingmode vector(packetBytes)
attr source packetSent
attr title "packets sent, packetBytes"
vector 157 Network.server.ethernet encapPk:vector(packetBytes) ETV
attr interpolationmode none
attr recordingmode vector(packetBytes)
attr source encapPk
attr title "packets encapsulated, packetBytes"
vector 158 Network.server.eth[0].queue incomingPacketLengths:vector ETV
attr interpolationmode none
attr recordingmode vector
attr source packetLength(packetPushStarted)
attr title "incoming packet lengths"
attr unit b
vector 159 Network.server.eth[0].queue incomingDataRate:vector ETV
attr interpolationmode linear
attr recordingmode vector
attr source throughput(packetPushStarted)
attr title "incoming datarate"
attr unit bps
vector 160 Network.server.eth[0].queue queueingTime:vector ETV
attr interpolationmode none
attr recordingmode vector
attr source queueingTime(packetPulled)
attr title "queueing times"
attr unit s
vector 161 Network.server.eth[0].queue outgoingPacketLengths:vector ETV
attr interpolationmode none
attr recordingmode vector
attr source packetLength(packetPulled)
attr title "outgoing packet lengths"
attr unit b
vector 162 Network.server.eth[0].queue outgoingDataRate:vector ETV
attr interpolationmode linear
attr recordingmode vector
attr source throughput(packetPulled)
attr title "outgoing datarate"
attr unit bps
vector 163 Network.server.eth[0].mac packetReceivedFromUpper:vector(packetBytes) ETV
attr interpolationmode none
attr recordingmode vector(packetBytes)
attr source packetReceivedFromUpper
attr title "packet bytes from higher layer, packetBytes"
vector 164 Network.server.eth[0].queue queueLength:vector ETV
attr autoWarmupFilter false
attr interpolationmode sample-hold
attr recordingmode vector
attr source "warmup(atomic(constant0(packetPushEnded) + count(packetPushStarted) - count(packetPulled) - count(packetRemoved) - count(packetDropped)))"
attr title "queue length"
attr unit pk
vector 165 Network.server.eth[0].queue queueBitLength:vector ETV
attr autoWarmupFilter false
attr interpolationmode sample-hold
attr recordingmode vector
attr source "warmup(atomic(constant0(packetPushEnded) + sum(packetLength(packetPushStarted)) - sum(packetLength(packetPulled)) - sum(packetLength(packetRemoved)) - sum(packetLength(packetDropped))))"
attr title "queue bit length"
attr unit b
vector 166 Network.server.eth[0].mac txPk:vector(packetBytes) ETV
attr interpolationmode none
attr recordingmode vector(packetBytes)
attr source packetSentToLower
attr title "packets transmitted, packetBytes"
vector 167 Network.server.app[0] unsuccessfulLookup:vector ETV
attr interpolationmode linear
attr recordingmode vector
attr source unsuccessfulLookup
attr title "Unsuccessful Lookup Count"
vector 168 Network.mainrouter.eth[3].mac rxPkOk:vector(packetBytes) ETV
attr interpolationmode none
attr recordingmode vector(packetBytes)
attr source rxPkOk
attr title "packets received OK, packetBytes"
vector 169 Network.mainrouter.eth[3].mac passedUpPk:vector(packetBytes) ETV
attr interpolationmode none
attr recordingmode vector(packetBytes)
attr source packetSentToUpper
attr title "packets passed to higher layer, packetBytes"
vector 170 Network.mainrouter.eth[1].queue incomingPacketLengths:vector ETV
attr interpolationmode none
attr recordingmode vector
attr source packetLength(packetPushStarted)
attr title "incoming packet lengths"
attr unit b
vector 171 Network.mainrouter.eth[1].queue incomingDataRate:vector ETV
attr interpolationmode linear
attr recordingmode vector
attr source throughput(packetPushStarted)
attr title "incoming datarate"
attr unit bps
vector 172 Network.mainrouter.eth[1].queue queueingTime:vector ETV
attr interpolationmode none
attr recordingmode vector
attr source queueingTime(packetPulled)
attr title "queueing times"
attr unit s
vector 173 Network.mainrouter.eth[1].queue outgoingPacketLengths:vector ETV
attr interpolationmode none
attr recordingmode vector
attr source packetLength(packetPulled)
attr title "outgoing packet lengths"
attr unit b
vector 174 Network.mainrouter.eth[1].queue outgoingDataRate:vector ETV
attr interpolationmode linear
attr recordingmode vector
attr source throughput(packetPulled)
attr title "outgoing datarate"
attr unit bps
vector 175 Network.mainrouter.eth[1].mac packetReceivedFromUpper:vector(packetBytes) ETV
attr interpolationmode none
attr recordingmode vector(packetBytes)
attr source packetReceivedFromUpper
attr title "packet bytes from higher layer, packetBytes"
vector 176 Network.mainrouter.eth[1].queue queueLength:vector ETV
attr autoWarmupFilter false
attr interpolationmode sample-hold
attr recordingmode vector
attr source "warmup(atomic(constant0(packetPushEnded) + count(packetPushStarted) - count(packetPulled) - count(packetRemoved) - count(packetDropped)))"
attr title "queue length"
attr unit pk
vector 177 Network.mainrouter.eth[1].queue queueBitLength:vector ETV
attr autoWarmupFilter false
attr interpolationmode sample-hold
attr recordingmode vector
attr source "warmup(atomic(constant0(packetPushEnded) + sum(packetLength(packetPushStarted)) - sum(packetLength(packetPulled)) - sum(packetLength(packetRemoved)) - sum(packetLength(packetDropped))))"
attr title "queue bit length"
attr unit b
vector 178 Network.mainrouter.eth[1].mac txPk:vector(packetBytes) ETV
attr interpolationmode none
attr recordingmode vector(packetBytes)
attr source packetSentToLower
attr title "packets transmitted, packetBytes"
vector 179 Network.mainrouter.eth[2].queue incomingPacketLengths:vector ETV
attr interpolationmode none
attr recordingmode vector
attr source packetLength(packetPushStarted)
attr title "incoming packet lengths"
attr unit b
vector 180 Network.mainrouter.eth[2].queue incomingDataRate:vector ETV
attr interpolationmode linear
attr recordingmode vector
attr source throughput(packetPushStarted)
attr title "incoming datarate"
attr unit bps
vector 181 Network.mainrouter.eth[2].queue queueingTime:vector ETV
attr interpolationmode none
attr recordingmode vector
attr source queueingTime(packetPulled)
attr title "queueing times"
attr unit s
vector 182 Network.mainrouter.eth[2].queue outgoingPacketLengths:vector ETV
attr interpolationmode none
attr recordingmode vector
attr source packetLength(packetPulled)
attr title "outgoing packet lengths"
attr unit b
vector 183 Network.mainrouter.eth[2].queue outgoingDataRate:vector ETV
attr interpolationmode linear
attr recordingmode vector
attr source throughput(packetPulled)
attr title "outgoing datarate"
attr unit bps
vector 184 Network.mainrouter.eth[2].mac packetReceivedFromUpper:vector(packetBytes) ETV
attr interpolationmode none
attr recordingmode vector(packetBytes)
attr source packetReceivedFromUpper
attr title "packet bytes from higher layer, packetBytes"
vector 185 Network.mainrouter.eth[2].queue queueLength:vector ETV
attr autoWarmupFilter false
attr interpolationmode sample-hold
attr recordingmode vector
attr source "warmup(atomic(constant0(packetPushEnded) + count(packetPushStarted) - count(packetPulled) - count(packetRemoved) - count(packetDropped)))"
attr title "queue length"
attr unit pk
vector 186 Network.mainrouter.eth[2].queue queueBitLength:vector ETV
attr autoWarmupFilter false
attr interpolationmode sample-hold
attr recordingmode vector
attr source "warmup(atomic(constant0(packetPushEnded) + sum(packetLength(packetPushStarted)) - sum(packetLength(packetPulled)) - sum(packetLength(packetRemoved)) - sum(packetLength(packetDropped))))"
attr title "queue bit length"
attr unit b
vector 187 Network.bunker2router.eth[0].mac rxPkOk:vector(packetBytes) ETV
attr interpolationmode none
attr recordingmode vector(packetBytes)
attr source rxPkOk
attr title "packets received OK, packetBytes"
vector 188 Network.bunker2router.eth[0].mac passedUpPk:vector(packetBytes) ETV
attr interpolationmode none
attr recordingmode vector(packetBytes)
attr source packetSentToUpper
attr title "packets passed to higher layer, packetBytes"
vector 189 Network.bunker2router.eth[3].queue incomingPacketLengths:vector ETV
attr interpolationmode none
attr recordingmode vector
attr source packetLength(packetPushStarted)
attr title "incoming packet lengths"
attr unit b
vector 190 Network.bunker2router.eth[3].queue incomingDataRate:vector ETV
attr interpolationmode linear
attr recordingmode vector
attr source throughput(packetPushStarted)
attr title "incoming datarate"
attr unit bps
vector 191 Network.bunker2router.eth[3].queue queueingTime:vector ETV
attr interpolationmode none
attr recordingmode vector
attr source queueingTime(packetPulled)
attr title "queueing times"
attr unit s
vector 192 Network.bunker2router.eth[3].queue outgoingPacketLengths:vector ETV
attr interpolationmode none
attr recordingmode vector
attr source packetLength(packetPulled)
attr title "outgoing packet lengths"
attr unit b
vector 193 Network.bunker2router.eth[3].queue outgoingDataRate:vector ETV
attr interpolationmode linear
attr recordingmode vector
attr source throughput(packetPulled)
attr title "outgoing datarate"
attr unit bps
vector 194 Network.bunker2router.eth[3].mac packetReceivedFromUpper:vector(packetBytes) ETV
attr interpolationmode none
attr recordingmode vector(packetBytes)
attr source packetReceivedFromUpper
attr title "packet bytes from higher layer, packetBytes"
vector 195 Network.bunker2router.eth[3].queue queueLength:vector ETV
attr autoWarmupFilter false
attr interpolationmode sample-hold
attr recordingmode vector
attr source "warmup(atomic(constant0(packetPushEnded) + count(packetPushStarted) - count(packetPulled) - count(packetRemoved) - count(packetDropped)))"
attr title "queue length"
attr unit pk
vector 196 Network.bunker2router.eth[3].queue queueBitLength:vector ETV
attr autoWarmupFilter false
attr interpolationmode sample-hold
attr recordingmode vector
attr source "warmup(atomic(constant0(packetPushEnded) + sum(packetLength(packetPushStarted)) - sum(packetLength(packetPulled)) - sum(packetLength(packetRemoved)) - sum(packetLength(packetDropped))))"
attr title "queue bit length"
attr unit b
vector 197 Network.mainrouter.eth[2].mac txPk:vector(packetBytes) ETV
attr interpolationmode none
attr recordingmode vector(packetBytes)
attr source packetSentToLower
attr title "packets transmitted, packetBytes"
vector 198 Network.bunker2router.eth[3].mac txPk:vector(packetBytes) ETV
attr interpolationmode none
attr recordingmode vector(packetBytes)
attr source packetSentToLower
attr title "packets transmitted, packetBytes"
vector 199 Network.bunker3router.eth[0].mac rxPkOk:vector(packetBytes) ETV
attr interpolationmode none
attr recordingmode vector(packetBytes)
attr source rxPkOk
attr title "packets received OK, packetBytes"
vector 200 Network.bunker3router.eth[0].mac passedUpPk:vector(packetBytes) ETV
attr interpolationmode none
attr recordingmode vector(packetBytes)
attr source packetSentToUpper
attr title "packets passed to higher layer, packetBytes"
vector 201 Network.bunker3router.eth[2].queue incomingPacketLengths:vector ETV
attr interpolationmode none
attr recordingmode vector
attr source packetLength(packetPushStarted)
attr title "incoming packet lengths"
attr unit b
vector 202 Network.bunker3router.eth[2].queue incomingDataRate:vector ETV
attr interpolationmode linear
attr recordingmode vector
attr source throughput(packetPushStarted)
attr title "incoming datarate"
attr unit bps
vector 203 Network.bunker3router.eth[2].queue queueingTime:vector ETV
attr interpolationmode none
attr recordingmode vector
attr source queueingTime(packetPulled)
attr title "queueing times"
attr unit s
vector 204 Network.bunker3router.eth[2].queue outgoingPacketLengths:vector ETV
attr interpolationmode none
attr recordingmode vector
attr source packetLength(packetPulled)
attr title "outgoing packet lengths"
attr unit b
vector 205 Network.bunker3router.eth[2].queue outgoingDataRate:vector ETV
attr interpolationmode linear
attr recordingmode vector
attr source throughput(packetPulled)
attr title "outgoing datarate"
attr unit bps
vector 206 Network.bunker3router.eth[2].mac packetReceivedFromUpper:vector(packetBytes) ETV
attr interpolationmode none
attr recordingmode vector(packetBytes)
attr source packetReceivedFromUpper
attr title "packet bytes from higher layer, packetBytes"
vector 207 Network.bunker3router.eth[2].queue queueLength:vector ETV
attr autoWarmupFilter false
attr interpolationmode sample-hold
attr recordingmode vector
attr source "warmup(atomic(constant0(packetPushEnded) + count(packetPushStarted) - count(packetPulled) - count(packetRemoved) - count(packetDropped)))"
attr title "queue length"
attr unit pk
vector 208 Network.bunker3router.eth[2].queue queueBitLength:vector ETV
attr autoWarmupFilter false
attr interpolationmode sample-hold
attr recordingmode vector
attr source "warmup(atomic(constant0(packetPushEnded) + sum(packetLength(packetPushStarted)) - sum(packetLength(packetPulled)) - sum(packetLength(packetRemoved)) - sum(packetLength(packetDropped))))"
attr title "queue bit length"
attr unit b
vector 209 Network.bunker2host[2].eth[0].mac rxPkOk:vector(packetBytes) ETV
attr interpolationmode none
attr recordingmode vector(packetBytes)
attr source rxPkOk
attr title "packets received OK, packetBytes"
vector 210 Network.bunker2host[2].eth[0].mac passedUpPk:vector(packetBytes) ETV
attr interpolationmode none
attr recordingmode vector(packetBytes)
attr source packetSentToUpper
attr title "packets passed to higher layer, packetBytes"
vector 211 Network.bunker2host[2].ethernet decapPk:vector(packetBytes) ETV
attr interpolationmode none
attr recordingmode vector(packetBytes)
attr source decapPk
attr title "packets decapsulated, packetBytes"
vector 212 Network.bunker2host[2].udp packetReceived:vector(packetBytes) ETV
attr interpolationmode none
attr recordingmode vector(packetBytes)
attr source packetReceived
attr title "packets received, packetBytes"
vector 213 Network.bunker2host[2].app[1] chunkLength:vector ETV
attr interpolationmode none
attr recordingmode vector
attr source chunkLength
attr title "Chunk Length"
vector 214 Network.bunker3router.eth[2].mac txPk:vector(packetBytes) ETV
attr interpolationmode none
attr recordingmode vector(packetBytes)
attr source packetSentToLower
attr title "packets transmitted, packetBytes"
vector 215 Network.bunker2router.eth[4].queue incomingPacketLengths:vector ETV
attr interpolationmode none
attr recordingmode vector
attr source packetLength(packetPushStarted)
attr title "incoming packet lengths"
attr unit b
vector 216 Network.bunker2router.eth[4].queue incomingDataRate:vector ETV
attr interpolationmode linear
attr recordingmode vector
attr source throughput(packetPushStarted)
attr title "incoming datarate"
attr unit bps
vector 217 Network.bunker2router.eth[4].queue queueingTime:vector ETV
attr interpolationmode none
attr recordingmode vector
attr source queueingTime(packetPulled)
attr title "queueing times"
attr unit s
vector 218 Network.bunker2router.eth[4].queue outgoingPacketLengths:vector ETV
attr interpolationmode none
attr recordingmode vector
attr source packetLength(packetPulled)
attr title "outgoing packet lengths"
attr unit b
vector 219 Network.bunker2router.eth[4].queue outgoingDataRate:vector ETV
attr interpolationmode linear
attr recordingmode vector
attr source throughput(packetPulled)
attr title "outgoing datarate"
attr unit bps
vector 220 Network.bunker2router.eth[4].mac packetReceivedFromUpper:vector(packetBytes) ETV
attr interpolationmode none
attr recordingmode vector(packetBytes)
attr source packetReceivedFromUpper
attr title "packet bytes from higher layer, packetBytes"
vector 221 Network.bunker2router.eth[4].queue queueLength:vector ETV
attr autoWarmupFilter false
attr interpolationmode sample-hold
attr recordingmode vector
attr source "warmup(atomic(constant0(packetPushEnded) + count(packetPushStarted) - count(packetPulled) - count(packetRemoved) - count(packetDropped)))"
attr title "queue length"
attr unit pk
vector 222 Network.bunker2router.eth[4].queue queueBitLength:vector ETV
attr autoWarmupFilter false
attr interpolationmode sample-hold
attr recordingmode vector
attr source "warmup(atomic(constant0(packetPushEnded) + sum(packetLength(packetPushStarted)) - sum(packetLength(packetPulled)) - sum(packetLength(packetRemoved)) - sum(packetLength(packetDropped))))"
attr title "queue bit length"
attr unit b
vector 223 Network.bunker3host[1].eth[0].mac rxPkOk:vector(packetBytes) ETV
attr interpolationmode none
attr recordingmode vector(packetBytes)
attr source rxPkOk
attr title "packets received OK, packetBytes"
vector 224 Network.bunker3host[1].eth[0].mac passedUpPk:vector(packetBytes) ETV
attr interpolationmode none
attr recordingmode vector(packetBytes)
attr source packetSentToUpper
attr title "packets passed to higher layer, packetBytes"
vector 225 Network.bunker3host[1].ethernet decapPk:vector(packetBytes) ETV
attr interpolationmode none
attr recordingmode vector(packetBytes)
attr source decapPk
attr title "packets decapsulated, packetBytes"
vector 226 Network.bunker3host[1].udp packetReceived:vector(packetBytes) ETV
attr interpolationmode none
attr recordingmode vector(packetBytes)
attr source packetReceived
attr title "packets received, packetBytes"
vector 227 Network.bunker2router.eth[4].mac txPk:vector(packetBytes) ETV
attr interpolationmode none
attr recordingmode vector(packetBytes)
attr source packetSentToLower
attr title "packets transmitted, packetBytes"
vector 228 Network.bunker2host[3].eth[0].mac rxPkOk:vector(packetBytes) ETV
attr interpolationmode none
attr recordingmode vector(packetBytes)
attr source rxPkOk
attr title "packets received OK, packetBytes"
vector 229 Network.bunker2host[3].eth[0].mac passedUpPk:vector(packetBytes) ETV
attr interpolationmode none
attr recordingmode vector(packetBytes)
attr source packetSentToUpper
attr title "packets passed to higher layer, packetBytes"
vector 230 Network.bunker2host[3].ethernet decapPk:vector(packetBytes) ETV
attr interpolationmode none
attr recordingmode vector(packetBytes)
attr source decapPk
attr title "packets decapsulated, packetBytes"
vector 231 Network.bunker2host[3].udp packetReceived:vector(packetBytes) ETV
attr interpolationmode none
attr recordingmode vector(packetBytes)
attr source packetReceived
attr title "packets received, packetBytes"
vector 232 Network.bunker2router.eth[2].queue incomingPacketLengths:vector ETV
attr interpolationmode none
attr recordingmode vector
attr source packetLength(packetPushStarted)
attr title "incoming packet lengths"
attr unit b
vector 233 Network.bunker2router.eth[2].queue incomingDataRate:vector ETV
attr interpolationmode linear
attr recordingmode vector
attr source throughput(packetPushStarted)
attr title "incoming datarate"
attr unit bps
vector 234 Network.bunker2router.eth[2].queue queueingTime:vector ETV
attr interpolationmode none
attr recordingmode vector
attr source queueingTime(packetPulled)
attr title "queueing times"
attr unit s
vector 235 Network.bunker2router.eth[2].queue outgoingPacketLengths:vector ETV
attr interpolationmode none
attr recordingmode vector
attr source packetLength(packetPulled)
attr title "outgoing packet lengths"
attr unit b
vector 236 Network.bunker2router.eth[2].queue outgoingDataRate:vector ETV
attr interpolationmode linear
attr recordingmode vector
attr source throughput(packetPulled)
attr title "outgoing datarate"
attr unit bps
vector 237 Network.bunker2router.eth[2].mac packetReceivedFromUpper:vector(packetBytes) ETV
attr interpolationmode none
attr recordingmode vector(packetBytes)
attr source packetReceivedFromUpper
attr title "packet bytes from higher layer, packetBytes"
vector 238 Network.bunker2router.eth[2].queue queueLength:vector ETV
attr autoWarmupFilter false
attr interpolationmode sample-hold
attr recordingmode vector
attr source "warmup(atomic(constant0(packetPushEnded) + count(packetPushStarted) - count(packetPulled) - count(packetRemoved) - count(packetDropped)))"
attr title "queue length"
attr unit pk
vector 239 Network.bunker2router.eth[2].queue queueBitLength:vector ETV
attr autoWarmupFilter false
attr interpolationmode sample-hold
attr recordingmode vector
attr source "warmup(atomic(constant0(packetPushEnded) + sum(packetLength(packetPushStarted)) - sum(packetLength(packetPulled)) - sum(packetLength(packetRemoved)) - sum(packetLength(packetDropped))))"
attr title "queue bit length"
attr unit b
vector 240 Network.bunker2router.eth[2].mac txPk:vector(packetBytes) ETV
attr interpolationmode none
attr recordingmode vector(packetBytes)
attr source packetSentToLower
attr title "packets transmitted, packetBytes"
vector 241 Network.bunker2host[1].eth[0].mac rxPkOk:vector(packetBytes) ETV
attr interpolationmode none
attr recordingmode vector(packetBytes)
attr source rxPkOk
attr title "packets received OK, packetBytes"
vector 242 Network.bunker2host[1].eth[0].mac passedUpPk:vector(packetBytes) ETV
attr interpolationmode none
attr recordingmode vector(packetBytes)
attr source packetSentToUpper
attr title "packets passed to higher layer, packetBytes"
vector 243 Network.bunker2host[1].ethernet decapPk:vector(packetBytes) ETV
attr interpolationmode none
attr recordingmode vector(packetBytes)
attr source decapPk
attr title "packets decapsulated, packetBytes"
vector 244 Network.bunker2host[1].udp packetReceived:vector(packetBytes) ETV
attr interpolationmode none
attr recordingmode vector(packetBytes)
attr source packetReceived
attr title "packets received, packetBytes"
vector 245 Network.bunker1host[1].udp packetSent:vector(packetBytes) ETV
attr interpolationmode none
attr recordingmode vector(packetBytes)
attr source packetSent
attr title "packets sent, packetBytes"
vector 246 Network.bunker1host[2].udp packetSent:vector(packetBytes) ETV
attr interpolationmode none
attr recordingmode vector(packetBytes)
attr source packetSent
attr title "packets sent, packetBytes"
vector 247 Network.bunker1host[1].ethernet encapPk:vector(packetBytes) ETV
attr interpolationmode none
attr recordingmode vector(packetBytes)
attr source encapPk
attr title "packets encapsulated, packetBytes"
vector 248 Network.bunker1host[2].ethernet encapPk:vector(packetBytes) ETV
attr interpolationmode none
attr recordingmode vector(packetBytes)
attr source encapPk
attr title "packets encapsulated, packetBytes"
vector 249 Network.bunker1host[1].eth[0].queue incomingPacketLengths:vector ETV
attr interpolationmode none
attr recordingmode vector
attr source packetLength(packetPushStarted)
attr title "incoming packet lengths"
attr unit b
vector 250 Network.bunker1host[1].eth[0].queue incomingDataRate:vector ETV
attr interpolationmode linear
attr recordingmode vector
attr source throughput(packetPushStarted)
attr title "incoming datarate"
attr unit bps
vector 251 Network.bunker1host[1].eth[0].queue queueingTime:vector ETV
attr interpolationmode none
attr recordingmode vector
attr source queueingTime(packetPulled)
attr title "queueing times"
attr unit s
vector 252 Network.bunker1host[1].eth[0].queue outgoingPacketLengths:vector ETV
attr interpolationmode none
attr recordingmode vector
attr source packetLength(packetPulled)
attr title "outgoing packet lengths"
attr unit b
vector 253 Network.bunker1host[1].eth[0].queue outgoingDataRate:vector ETV
attr interpolationmode linear
attr recordingmode vector
attr source throughput(packetPulled)
attr title "outgoing datarate"
attr unit bps
vector 254 Network.bunker1host[1].eth[0].mac packetReceivedFromUpper:vector(packetBytes) ETV
attr interpolationmode none
attr recordingmode vector(packetBytes)
attr source packetReceivedFromUpper
attr title "packet bytes from higher layer, packetBytes"
vector 255 Network.bunker1host[1].eth[0].queue queueLength:vector ETV
attr autoWarmupFilter false
attr interpolationmode sample-hold
attr recordingmode vector
attr source "warmup(atomic(constant0(packetPushEnded) + count(packetPushStarted) - count(packetPulled) - count(packetRemoved) - count(packetDropped)))"
attr title "queue length"
attr unit pk
vector 256 Network.bunker1host[1].eth[0].queue queueBitLength:vector ETV
attr autoWarmupFilter false
attr interpolationmode sample-hold
attr recordingmode vector
attr source "warmup(atomic(constant0(packetPushEnded) + sum(packetLength(packetPushStarted)) - sum(packetLength(packetPulled)) - sum(packetLength(packetRemoved)) - sum(packetLength(packetDropped))))"
attr title "queue bit length"
attr unit b
vector 257 Network.bunker1host[2].eth[0].queue incomingPacketLengths:vector ETV
attr interpolationmode none
attr recordingmode vector
attr source packetLength(packetPushStarted)
attr title "incoming packet lengths"
attr unit b
vector 258 Network.bunker1host[2].eth[0].queue incomingDataRate:vector ETV
attr interpolationmode linear
attr recordingmode vector
attr source throughput(packetPushStarted)
attr title "incoming datarate"
attr unit bps
vector 259 Network.bunker1host[2].eth[0].queue queueingTime:vector ETV
attr interpolationmode none
attr recordingmode vector
attr source queueingTime(packetPulled)
attr title "queueing times"
attr unit s
vector 260 Network.bunker1host[2].eth[0].queue outgoingPacketLengths:vector ETV
attr interpolationmode none
attr recordingmode vector
attr source packetLength(packetPulled)
attr title "outgoing packet lengths"
attr unit b
vector 261 Network.bunker1host[2].eth[0].queue outgoingDataRate:vector ETV
attr interpolationmode linear
attr recordingmode vector
attr source throughput(packetPulled)
attr title "outgoing datarate"
attr unit bps
vector 262 Network.bunker1host[2].eth[0].mac packetReceivedFromUpper:vector(packetBytes) ETV
attr interpolationmode none
attr recordingmode vector(packetBytes)
attr source packetReceivedFromUpper
attr title "packet bytes from higher layer, packetBytes"
vector 263 Network.bunker1host[2].eth[0].queue queueLength:vector ETV
attr autoWarmupFilter false
attr interpolationmode sample-hold
attr recordingmode vector
attr source "warmup(atomic(constant0(packetPushEnded) + count(packetPushStarted) - count(packetPulled) - count(packetRemoved) - count(packetDropped)))"
attr title "queue length"
attr unit pk
vector 264 Network.bunker1host[2].eth[0].queue queueBitLength:vector ETV
attr autoWarmupFilter false
attr interpolationmode sample-hold
attr recordingmode vector
attr source "warmup(atomic(constant0(packetPushEnded) + sum(packetLength(packetPushStarted)) - sum(packetLength(packetPulled)) - sum(packetLength(packetRemoved)) - sum(packetLength(packetDropped))))"
attr title "queue bit length"
attr unit b
vector 265 Network.bunker1host[1].eth[0].mac txPk:vector(packetBytes) ETV
attr interpolationmode none
attr recordingmode vector(packetBytes)
attr source packetSentToLower
attr title "packets transmitted, packetBytes"
vector 266 Network.bunker1host[2].eth[0].mac txPk:vector(packetBytes) ETV
attr interpolationmode none
attr recordingmode vector(packetBytes)
attr source packetSentToLower
attr title "packets transmitted, packetBytes"
vector 267 Network.bunker1router.eth[2].mac rxPkOk:vector(packetBytes) ETV
attr interpolationmode none
attr recordingmode vector(packetBytes)
attr source rxPkOk
attr title "packets received OK, packetBytes"
vector 268 Network.bunker1router.eth[2].mac passedUpPk:vector(packetBytes) ETV
attr interpolationmode none
attr recordingmode vector(packetBytes)
attr source packetSentToUpper
attr title "packets passed to higher layer, packetBytes"
vector 269 Network.bunker1router.eth[3].mac rxPkOk:vector(packetBytes) ETV
attr interpolationmode none
attr recordingmode vector(packetBytes)
attr source rxPkOk
attr title "packets received OK, packetBytes"
vector 270 Network.bunker1router.eth[3].mac passedUpPk:vector(packetBytes) ETV
attr interpolationmode none
attr recordingmode vector(packetBytes)
attr source packetSentToUpper
attr title "packets passed to higher layer, packetBytes"
vector 271 Network.bunker1router.ethernet decapPk:vector(packetBytes) ETV
attr interpolationmode none
attr recordingmode vector(packetBytes)
attr source decapPk
attr title "packets decapsulated, packetBytes"
vector 272 Network.bunker1router.ethernet encapPk:vector(packetBytes) ETV
attr interpolationmode none
attr recordingmode vector(packetBytes)
attr source encapPk
attr title "packets encapsulated, packetBytes"
vector 273 Network.bunker1router.eth[0].queue incomingPacketLengths:vector ETV
attr interpolationmode none
attr recordingmode vector
attr source packetLength(packetPushStarted)
attr title "incoming packet lengths"
attr unit b
vector 274 Network.bunker1router.eth[0].queue incomingDataRate:vector ETV
attr interpolationmode linear
attr recordingmode vector
attr source throughput(packetPushStarted)
attr title "incoming datarate"
attr unit bps
vector 275 Network.bunker1router.eth[0].queue queueingTime:vector ETV
attr interpolationmode none
attr recordingmode vector
attr source queueingTime(packetPulled)
attr title "queueing times"
attr unit s
vector 276 Network.bunker1router.eth[0].queue outgoingPacketLengths:vector ETV
attr interpolationmode none
attr recordingmode vector
attr source packetLength(packetPulled)
attr title "outgoing packet lengths"
attr unit b
vector 277 Network.bunker1router.eth[0].queue outgoingDataRate:vector ETV
attr interpolationmode linear
attr recordingmode vector
attr source throughput(packetPulled)
attr title "outgoing datarate"
attr unit bps
vector 278 Network.bunker1router.eth[0].mac packetReceivedFromUpper:vector(packetBytes) ETV
attr interpolationmode none
attr recordingmode vector(packetBytes)
attr source packetReceivedFromUpper
attr title "packet bytes from higher layer, packetBytes"
vector 279 Network.bunker1router.eth[0].queue queueLength:vector ETV
attr autoWarmupFilter false
attr interpolationmode sample-hold
attr recordingmode vector
attr source "warmup(atomic(constant0(packetPushEnded) + count(packetPushStarted) - count(packetPulled) - count(packetRemoved) - count(packetDropped)))"
attr title "queue length"
attr unit pk
vector 280 Network.bunker1router.eth[0].queue queueBitLength:vector ETV
attr autoWarmupFilter false
attr interpolationmode sample-hold
attr recordingmode vector
attr source "warmup(atomic(constant0(packetPushEnded) + sum(packetLength(packetPushStarted)) - sum(packetLength(packetPulled)) - sum(packetLength(packetRemoved)) - sum(packetLength(packetDropped))))"
attr title "queue bit length"
attr unit b
vector 281 Network.bunker1router.eth[0].mac txPk:vector(packetBytes) ETV
attr interpolationmode none
attr recordingmode vector(packetBytes)
attr source packetSentToLower
attr title "packets transmitted, packetBytes"
vector 282 Network.mainrouter.eth[0].mac rxPkOk:vector(packetBytes) ETV
attr interpolationmode none
attr recordingmode vector(packetBytes)
attr source rxPkOk
attr title "packets received OK, packetBytes"
vector 283 Network.mainrouter.eth[0].mac passedUpPk:vector(packetBytes) ETV
attr interpolationmode none
attr recordingmode vector(packetBytes)
attr source packetSentToUpper
attr title "packets passed to higher layer, packetBytes"
vector 284 Network.mainrouter.eth[0].queue incomingPacketLengths:vector ETV
attr interpolationmode none
attr recordingmode vector
attr source packetLength(packetPushStarted)
attr title "incoming packet lengths"
attr unit b
vector 285 Network.mainrouter.eth[0].queue incomingDataRate:vector ETV
attr interpolationmode linear
attr recordingmode vector
attr source throughput(packetPushStarted)
attr title "incoming datarate"
attr unit bps
vector 286 Network.mainrouter.eth[0].queue queueingTime:vector ETV
attr interpolationmode none
attr recordingmode vector
attr source queueingTime(packetPulled)
attr title "queueing times"
attr unit s
vector 287 Network.mainrouter.eth[0].queue outgoingPacketLengths:vector ETV
attr interpolationmode none
attr recordingmode vector
attr source packetLength(packetPulled)
attr title "outgoing packet lengths"
attr unit b
vector 288 Network.mainrouter.eth[0].queue outgoingDataRate:vector ETV
attr interpolationmode linear
attr recordingmode vector
attr source throughput(packetPulled)
attr title "outgoing datarate"
attr unit bps
vector 289 Network.mainrouter.eth[0].mac packetReceivedFromUpper:vector(packetBytes) ETV
attr interpolationmode none
attr recordingmode vector(packetBytes)
attr source packetReceivedFromUpper
attr title "packet bytes from higher layer, packetBytes"
vector 290 Network.mainrouter.eth[0].queue queueLength:vector ETV
attr autoWarmupFilter false
attr interpolationmode sample-hold
attr recordingmode vector
attr source "warmup(atomic(constant0(packetPushEnded) + count(packetPushStarted) - count(packetPulled) - count(packetRemoved) - count(packetDropped)))"
attr title "queue length"
attr unit pk
vector 291 Network.mainrouter.eth[0].queue queueBitLength:vector ETV
attr autoWarmupFilter false
attr interpolationmode sample-hold
attr recordingmode vector
attr source "warmup(atomic(constant0(packetPushEnded) + sum(packetLength(packetPushStarted)) - sum(packetLength(packetPulled)) - sum(packetLength(packetRemoved)) - sum(packetLength(packetDropped))))"
attr title "queue bit length"
attr unit b
vector 292 Network.mainrouter.eth[0].mac txPk:vector(packetBytes) ETV
attr interpolationmode none
attr recordingmode vector(packetBytes)
attr source packetSentToLower
attr title "packets transmitted, packetBytes"
vector 293 Network.bunker1router.eth[0].mac rxPkOk:vector(packetBytes) ETV
attr interpolationmode none
attr recordingmode vector(packetBytes)
attr source rxPkOk
attr title "packets received OK, packetBytes"
vector 294 Network.bunker1router.eth[0].mac passedUpPk:vector(packetBytes) ETV
attr interpolationmode none
attr recordingmode vector(packetBytes)
attr source packetSentToUpper
attr title "packets passed to higher layer, packetBytes"
vector 295 Network.bunker1router.eth[2].queue incomingPacketLengths:vector ETV
attr interpolationmode none
attr recordingmode vector
attr source packetLength(packetPushStarted)
attr title "incoming packet lengths"
attr unit b
vector 296 Network.bunker1router.eth[2].queue incomingDataRate:vector ETV
attr interpolationmode linear
attr recordingmode vector
attr source throughput(packetPushStarted)
attr title "incoming datarate"
attr unit bps
vector 297 Network.bunker1router.eth[2].queue queueingTime:vector ETV
attr interpolationmode none
attr recordingmode vector
attr source queueingTime(packetPulled)
attr title "queueing times"
attr unit s
vector 298 Network.bunker1router.eth[2].queue outgoingPacketLengths:vector ETV
attr interpolationmode none
attr recordingmode vector
attr source packetLength(packetPulled)
attr title "outgoing packet lengths"
attr unit b
vector 299 Network.bunker1router.eth[2].queue outgoingDataRate:vector ETV
attr interpolationmode linear
attr recordingmode vector
attr source throughput(packetPulled)
attr title "outgoing datarate"
attr unit bps
vector 300 Network.bunker1router.eth[2].mac packetReceivedFromUpper:vector(packetBytes) ETV
attr interpolationmode none
attr recordingmode vector(packetBytes)
attr source packetReceivedFromUpper
attr title "packet bytes from higher layer, packetBytes"
vector 301 Network.bunker1router.eth[2].queue queueLength:vector ETV
attr autoWarmupFilter false
attr interpolationmode sample-hold
attr recordingmode vector
attr source "warmup(atomic(constant0(packetPushEnded) + count(packetPushStarted) - count(packetPulled) - count(packetRemoved) - count(packetDropped)))"
attr title "queue length"
attr unit pk
vector 302 Network.bunker1router.eth[2].queue queueBitLength:vector ETV
attr autoWarmupFilter false
attr interpolationmode sample-hold
attr recordingmode vector
attr source "warmup(atomic(constant0(packetPushEnded) + sum(packetLength(packetPushStarted)) - sum(packetLength(packetPulled)) - sum(packetLength(packetRemoved)) - sum(packetLength(packetDropped))))"
attr title "queue bit length"
attr unit b
vector 303 Network.bunker1router.eth[2].mac txPk:vector(packetBytes) ETV
attr interpolationmode none
attr recordingmode vector(packetBytes)
attr source packetSentToLower
attr title "packets transmitted, packetBytes"
vector 304 Network.bunker1host[1].eth[0].mac rxPkOk:vector(packetBytes) ETV
attr interpolationmode none
attr recordingmode vector(packetBytes)
attr source rxPkOk
attr title "packets received OK, packetBytes"
vector 305 Network.bunker1host[1].eth[0].mac passedUpPk:vector(packetBytes) ETV
attr interpolationmode none
attr recordingmode vector(packetBytes)
attr source packetSentToUpper
attr title "packets passed to higher layer, packetBytes"
vector 306 Network.bunker1host[1].ethernet decapPk:vector(packetBytes) ETV
attr interpolationmode none
attr recordingmode vector(packetBytes)
attr source decapPk
attr title "packets decapsulated, packetBytes"
vector 307 Network.bunker1host[1].udp packetReceived:vector(packetBytes) ETV
attr interpolationmode none
attr recordingmode vector(packetBytes)
attr source packetReceived
attr title "packets received, packetBytes"
vector 308 Network.bunker3router.eth[3].queue incomingPacketLengths:vector ETV
attr interpolationmode none
attr recordingmode vector
attr source packetLength(packetPushStarted)
attr title "incoming packet lengths"
attr unit b
vector 309 Network.bunker3router.eth[3].queue incomingDataRate:vector ETV
attr interpolationmode linear
attr recordingmode vector
attr source throughput(packetPushStarted)
attr title "incoming datarate"
attr unit bps
vector 310 Network.bunker3router.eth[3].queue queueingTime:vector ETV
attr interpolationmode none
attr recordingmode vector
attr source queueingTime(packetPulled)
attr title "queueing times"
attr unit s
vector 311 Network.bunker3router.eth[3].queue outgoingPacketLengths:vector ETV
attr interpolationmode none
attr recordingmode vector
attr source packetLength(packetPulled)
attr title "outgoing packet lengths"
attr unit b
vector 312 Network.bunker3router.eth[3].queue outgoingDataRate:vector ETV
attr interpolationmode linear
attr recordingmode vector
attr source throughput(packetPulled)
attr title "outgoing datarate"
attr unit bps
vector 313 Network.bunker3router.eth[3].mac packetReceivedFromUpper:vector(packetBytes) ETV
attr interpolationmode none
attr recordingmode vector(packetBytes)
attr source packetReceivedFromUpper
attr title "packet bytes from higher layer, packetBytes"
vector 314 Network.bunker3router.eth[3].queue queueLength:vector ETV
attr autoWarmupFilter false
attr interpolationmode sample-hold
attr recordingmode vector
attr source "warmup(atomic(constant0(packetPushEnded) + count(packetPushStarted) - count(packetPulled) - count(packetRemoved) - count(packetDropped)))"
attr title "queue length"
attr unit pk
vector 315 Network.bunker3router.eth[3].queue queueBitLength:vector ETV
attr autoWarmupFilter false
attr interpolationmode sample-hold
attr recordingmode vector
attr source "warmup(atomic(constant0(packetPushEnded) + sum(packetLength(packetPushStarted)) - sum(packetLength(packetPulled)) - sum(packetLength(packetRemoved)) - sum(packetLength(packetDropped))))"
attr title "queue bit length"
attr unit b
vector 316 Network.bunker3router.eth[3].mac txPk:vector(packetBytes) ETV
attr interpolationmode none
attr recordingmode vector(packetBytes)
attr source packetSentToLower
attr title "packets transmitted, packetBytes"
vector 317 Network.bunker1router.eth[3].queue incomingPacketLengths:vector ETV
attr interpolationmode none
attr recordingmode vector
attr source packetLength(packetPushStarted)
attr title "incoming packet lengths"
attr unit b
vector 318 Network.bunker1router.eth[3].queue incomingDataRate:vector ETV
attr interpolationmode linear
attr recordingmode vector
attr source throughput(packetPushStarted)
attr title "incoming datarate"
attr unit bps
vector 319 Network.bunker1router.eth[3].queue queueingTime:vector ETV
attr interpolationmode none
attr recordingmode vector
attr source queueingTime(packetPulled)
attr title "queueing times"
attr unit s
vector 320 Network.bunker1router.eth[3].queue outgoingPacketLengths:vector ETV
attr interpolationmode none
attr recordingmode vector
attr source packetLength(packetPulled)
attr title "outgoing packet lengths"
attr unit b
vector 321 Network.bunker1router.eth[3].queue outgoingDataRate:vector ETV
attr interpolationmode linear
attr recordingmode vector
attr source throughput(packetPulled)
attr title "outgoing datarate"
attr unit bps
[...]
200	284222 412 210 2308 7.0000006148 34.0000031452 16 66 967 4189 2787889
201	284634 130 215 2201 7.0000006148 33.000000546 5 528 5256 7368 28740672
202	284764 4968 215 2201 0.1 33 330 0 52560 68400 2846188800
203	289732 119 215 2201 7.0000006148 33.000000546 5 0 0 0 0
204	289851 130 215 2201 7.0000006148 33.000000546 5 528 5256 7368 28740672
205	289981 4968 215 2201 0.1 33 330 0 52560 68400 2846188800
206	294949 125 215 2201 7.0000006148 33.000000546 5 66 657 921 449073
207	295074 119 215 2201 7.0000006148 33.000000546 5 0 0 0 0
208	295193 119 215 2201 7.0000006148 33.000000546 5 0 0 0 0
209	295312 101 218 1468 7.0000006552 25.0000008088 4 66 435 793 246581
210	295413 101 218 1468 7.0000006552 25.0000008088 4 66 435 793 246581
211	295514 101 219 1469 7.0000006552 25.0000008088 4 48 417 721 219329
212	295615 77 221 1471 7.0000006552 25.0000008088 3 28 397 605 190793
213	295692 40 222 921 7.0000006552 18 2 218 813 1031 708493
214	295732 127 227 2202 7.000000674 33.0000006052 5 66 657 921 449073
215	295859 104 233 2149 7.0000006836 32.000000546 4 528 528 2112 1115136
216	295963 4816 233 2149 0.1 32 320 0 5280 15840 83635200
217	300779 96 233 2149 7.0000006836 32.000000546 4 0 0 0 0
218	300875 104 233 2149 7.0000006836 32.000000546 4 528 528 2112 1115136
219	300979 4816 233 2149 0.1 32 320 0 5280 15840 83635200
220	305795 100 233 2149 7.0000006836 32.000000546 4 66 66 264 17424
221	305895 96 233 2149 7.0000006836 32.000000546 4 0 0 0 0
222	305991 96 233 2149 7.0000006836 32.000000546 4 0 0 0 0
223	306087 127 234 2204 7.000000724 33.0000006552 5 66 657 921 449073
224	306214 127 234 2204 7.000000724 33.0000006552 5 66 657 921 449073
225	306341 127 235 2205 7.000000724 33.0000006552 5 48 639 831 417537
226	306468 127 237 2207 7.000000724 33.0000006552 5 28 619 731 386297
227	306595 99 239 2150 7.0000007428 32.0000006052 4 66 66 264 17424
228	306694 99 241 2152 7.0000007928 32.0000006552 4 66 66 264 17424
229	306793 99 241 2152 7.0000007928 32.0000006552 4 66 66 264 17424
230	306892 99 242 2153 7.0000007928 32.0000006552 4 48 48 192 9216
231	306991 99 244 2155 7.0000007928 32.0000006552 4 28 28 112 3136
232	307090 130 252 2280 7.0000013988 34.000000546 5 528 6872 10568 52521280
233	307220 5104 252 2280 0.1 34 340 0 68720 100400 5447276800
234	312324 118 252 2280 7.0000013988 34.000000546 5 0 0 0 0
235	312442 130 252 2280 7.0000013988 34.000000546 5 528 6872 10568 52521280
236	312572 5104 252 2280 0.1 34 340 0 68720 100400 5447276800
237	317676 125 252 2280 7.0000013988 34.000000546 5 66 859 1321 820645
238	317801 118 252 2280 7.0000013988 34.000000546 5 0 0 0 0
239	317919 118 252 2280 7.0000013988 34.000000546 5 0 0 0 0
240	318037 127 253 2281 7.0000020924 34.0000006052 5 66 859 1321 820645
241	318164 127 255 2283 7.0000021424 34.0000006552 5 66 859 1321 820645
242	318291 127 255 2283 7.0000021424 34.0000006552 5 66 859 1321 820645
243	318418 127 256 2284 7.0000021424 34.0000006552 5 48 841 1231 774709
244	318545 127 258 2286 7.0000021424 34.0000006552 5 28 821 1131 727469
245	318672 114 285 2214 8 34 7 28 619 787 387865
246	318786 128 287 2326 8 35 8 28 639 835 413809
247	318914 114 296 2218 8 34 7 48 639 927 422145
248	319028 128 297 2330 8 35 8 48 659 995 450409
249	319156 121 300 2220 8 34 7 528 5256 8424 29298240
250	319277 5109 300 2220 0.1 34 340 0 57840 78960 3456979200
251	324386 106 300 2220 8 34 7 0 0 0 0
252	324492 121 300 2220 8 34 7 528 5256 8424 29298240
253	324613 5109 300 2220 0.1 34 340 0 57840 78960 3456979200
254	329722 114 300 2220 8 34 7 66 657 1053 457785
255	329836 106 300 2220 8 34 7 0 0 0 0
256	329942 106 300 2220 8 34 7 0 0 0 0
257	330048 136 301 2332 8 35 8 528 5416 9112 31284544
258	330184 5308 301 2332 0.1 35 350 0 59440 85840 3728262400
259	335492 137 301 2332 8 35 8 0 6.88e-08 6.88e-08 4.73344e-15
260	335629 147 301 2332 8 35 8 528 5416 9112 31284544
261	335776 5308 301 2332 0.1 35 350 0 59440 85840 3728262400
262	341084 139 301 2332 8 35 8 66 677 1139 488821
263	341223 143 301 2332 8 35 9 0 1 1 1
264	341366 145 301 2332 8 35 9 0 528 528 278784
265	341511 180 304 2222 8.0000000592 34.0000000592 7 66 657 1053 457785
266	341691 204 305 2334 8.0000000592 35.0000000592 8 66 677 1139 488821
267	341895 180 312 2226 8.0000001092 34.0000001092 7 66 657 1053 457785
268	342075 180 312 2226 8.0000001092 34.0000001092 7 66 657 1053 457785
269	342255 204 313 2338 8.0000001092 35.0000001092 8 66 677 1139 488821
270	342459 204 313 2338 8.0000001092 35.0000001092 8 66 677 1139 488821
271	342663 688 316 2340 8.0000001092 35.0000001092 27 48 917 4646 2558536
272	343351 688 324 2344 8.0000001092 35.0000001092 27 48 917 4646 2558536
273	344039 481 328 2346 8.0000001092 35.0000001092 18 528 7480 26976 118862592
274	344520 5290 328 2346 0.1 35 350 0 74800 264480 13836057600
275	349810 467 328 2346 8.0000001092 35.0000001092 18 0 6.88e-08 2.752e-07 1.893376e-14
276	350277 479 328 2346 8.0000001092 35.0000001092 18 528 7480 26976 118862592
277	350756 5290 328 2346 0.1 35 350 0 74800 264480 13836057600
278	356046 461 328 2346 8.0000001092 35.0000001092 18 66 935 3372 1857228
279	356507 534 328 2346 8.0000001092 35.0000001092 22 0 1 4 4
280	357041 542 328 2346 8.0000001092 35.0000001092 22 0 528 2112 1115136
281	357583 463 332 2348 8.0000001684 35.0000001684 18 66 935 3372 1857228
282	358046 463 338 2352 8.0000002184 35.0000002184 18 66 935 3372 1857228
283	358509 463 338 2352 8.0000002184 35.0000002184 18 66 935 3372 1857228
284	358972 237 390 1948 8.0000004368 30.0000004368 9 528 5568 14080 56147968
285	359209 4522 390 1948 0.1 30 300 0 55680 135520 6151244800
286	363731 217 390 1948 8.0000004368 30.0000004368 9 0 0 0 0
287	363948 237 390 1948 8.0000004368 30.0000004368 9 528 5568 14080 56147968
288	364185 4522 390 1948 0.1 30 300 0 55680 135520 6151244800
289	368707 228 390 1948 8.0000004368 30.0000004368 9 66 696 1760 877312
290	368935 217 390 1948 8.0000004368 30.0000004368 9 0 0 0 0
291	369152 217 390 1948 8.0000004368 30.0000004368 9 0 0 0 0
292	369369 225 404 1949 8.000000496 30.000000496 9 66 696 1760 877312
293	369594 225 422 1951 8.000000546 30.000000546 9 66 696 1760 877312
294	369819 225 422 1951 8.000000546 30.000000546 9 66 696 1760 877312
295	370044 103 426 1955 8.000000546 30.000000546 4 528 4816 6400 24030208
296	370147 4571 426 1955 0.1 30 300 0 48160 58720 2375142400
297	374718 94 426 1955 8.000000546 30.000000546 4 0 0 0 0
298	374812 103 426 1955 8.000000546 30.000000546 4 528 4816 6400 24030208
299	374915 4571 426 1955 0.1 30 300 0 48160 58720 2375142400
300	379486 99 426 1955 8.000000546 30.000000546 4 66 602 800 375472
301	379585 94 426 1955 8.000000546 30.000000546 4 0 0 0 0
302	379679 94 426 1955 8.000000546 30.000000546 4 0 0 0 0
303	379773 102 436 1956 8.0000006052 30.0000006052 4 66 602 800 375472
304	379875 102 450 1958 8.0000006552 30.0000006552 4 66 602 800 375472
305	379977 102 450 1958 8.0000006552 30.0000006552 4 66 602 800 375472
306	380079 102 451 1959 8.0000006552 30.0000006552 4 48 584 728 347968
307	380181 102 453 1961 8.0000006552 30.0000006552 4 28 564 648 320448
308	380283 162 461 2072 8.0000006836 31.0000005988 6 528 7480 11408 59669120
309	380445 4735 461 2072 0.1 31 310 0 74800 99760 5761849600
310	385180 148 461 2072 8.0000006836 31.0000005988 6 0 0 0 0
311	385328 162 461 2072 8.0000006836 31.0000005988 6 528 7480 11408 59669120
312	385490 4735 461 2072 0.1 31 310 0 74800 99760 5761849600
313	390225 157 461 2072 8.0000006836 31.0000005988 6 66 935 1426 932330
314	390382 148 461 2072 8.0000006836 31.0000005988 6 0 0 0 0
315	390530 148 461 2072 8.0000006836 31.0000005988 6 0 0 0 0
316	390678 155 469 2073 8.0000007428 31.0000007484 6 66 935 1426 932330
317	390833 103 475 1871 8.0000007524 29.000000546 4 528 528 2112 1115136
318	390936 4352 475 1871 0.1 29 290 0 5280 15840 83635200
319	395288 95 475 1871 8.0000007524 29.000000546 4 0 0 0 0
320	395383 103 475 1871 8.0000007524 29.000000546 4 528 528 2112 1115136
321	395486 4352 475 1871 0.1 29 290 0 5280 15840 83635200
322	399838 99 475 1871 8.0000007524 29.000000546 4 66 66 264 17424
323	399937 95 475 1871 8.0000007524 29.000000546 4 0 0 0 0
324	400032 95 475 1871 8.0000007524 29.000000546 4 0 0 0 0
325	400127 155 476 2075 8.0000007928 31.0000007984 6 66 935 1426 932330
326	400282 155 476 2075 8.0000007928 31.0000007984 6 66 935 1426 932330
327	400437 154 477 2076 8.0000007928 31.0000007984 6 48 917 1318 882938
328	400591 154 479 2078 8.0000007928 31.0000007984 6 28 897 1198 832618
329	400745 101 481 1872 8.0000008116 29.0000006052 4 66 66 264 17424
330	400846 101 483 1874 8.0000008616 29.0000006552 4 66 66 264 17424
331	400947 101 483 1874 8.0000008616 29.0000006552 4 66 66 264 17424
332	401048 101 484 1875 8.0000008616 29.0000006552 4 48 48 192 9216
333	401149 101 486 1877 8.0000008616 29.0000006552 4 28 28 112 3136
334	401250 100 493 2325 10 35 6 28 345 485 122945
335	401350 100 495 2329 10 35 6 48 365 605 144745
336	401450 106 496 2331 10 35 6 528 3064 5704 10782016
337	401556 5344 496 2331 0.1 35 350 0 35920 51760 1373881600
338	406900 93 496 2331 10 35 6 0 0 0 0
339	406993 106 496 2331 10 35 6 528 3064 5704 10782016
340	407099 5344 496 2331 0.1 35 350 0 35920 51760 1373881600
341	412443 100 496 2331 10 35 6 66 383 713 168469
342	412543 93 496 2331 10 35 6 0 0 0 0
343	412636 93 496 2331 10 35 6 0 0 0 0
344	412729 156 497 2333 10.0000000592 35.0000000592 6 66 383 713 168469
345	412885 156 499 2337 10.0000001092 35.0000001092 6 66 383 713 168469
346	413041 156 499 2337 10.0000001092 35.0000001092 6 66 383 713 168469
347	413197 107 535 2312 10.000000546 34.0000031452 4 528 7736 9320 60682048
348	413304 5182 535 2312 0.1 34 340 0 5280 15840 83635200
349	418486 98 535 2312 10.000000546 34.0000031452 4 0 0 0 0
350	418584 107 535 2312 10.000000546 34.0000031452 4 528 7736 9320 60682048
351	418691 5182 535 2312 0.1 34 340 0 5280 15840 83635200
352	423873 103 535 2312 10.000000546 34.0000031452 4 66 967 1165 948157
353	423976 98 535 2312 10.000000546 34.0000031452 4 0 0 0 0
354	424074 98 535 2312 10.000000546 34.0000031452 4 0 0 0 0
355	424172 103 536 2313 10.0000006052 34.0000039252 4 66 967 1165 948157
356	424275 103 538 2315 10.0000006552 34.0000039752 4 66 967 1165 948157
357	424378 103 538 2315 10.0000006552 34.0000039752 4 66 967 1165 948157
358	424481 103 539 2316 10.0000006552 34.0000039752 4 48 949 1093 907513
359	424584 103 541 2318 10.0000006552 34.0000039752 4 28 929 1013 865393
360	424687 29 550 1745 11 28 2 28 28 56 1568
361	424716 29 556 1749 11 28 2 48 48 96 4608
362	424745 31 559 1751 11 28 2 528 528 1056 557568
363	424776 4218 559 1751 0.1 28 280 0 5280 5280 27878400
364	428994 27 559 1751 11 28 2 0 0 0 0
365	429021 31 559 1751 11 28 2 528 528 1056 557568
366	429052 4218 559 1751 0.1 28 280 0 5280 5280 27878400
367	433270 29 559 1751 11 28 2 66 66 132 8712
368	433299 27 559 1751 11 28 2 0 0 0 0
369	433326 27 559 1751 11 28 2 0 0 0 0
370	433353 51 562 1752 11.0000000592 28.0000000592 2 66 66 132 8712
371	433404 51 568 1756 11.0000001092 28.0000001092 2 66 66 132 8712
372	433455 51 568 1756 11.0000001092 28.0000001092 2 66 66 132 8712
373	433506 46 632 1999 14 31 3 28 897 1066 825274
374	433552 46 638 2005 14 31 3 48 917 1126 869114
375	433598 49 641 2008 14 31 3 528 7480 9440 58279808
376	433647 4666 641 2008 0.1 31 310 0 74800 80080 5622918400
377	438313 41 641 2008 14 31 3 0 0 0 0
378	438354 49 641 2008 14 31 3 528 7480 9440 58279808
379	438403 4666 641 2008 0.1 31 310 0 74800 80080 5622918400
380	443069 46 641 2008 14 31 3 66 935 1180 910622
381	443115 41 641 2008 14 31 3 0 0 0 0
382	443156 41 641 2008 14 31 3 0 0 0 0
383	443197 79 643 2024 14.0000000592 31.0000001496 3 66 935 1180 910622
384	443276 79 647 2028 14.0000001092 31.0000001996 3 66 935 1180 910622
385	443355 79 647 2028 14.0000001092 31.0000001996 3 66 935 1180 910622
386	443434 53 883 1657 16.0000006552 27.0000006552 2 172 565 737 348809
387	443487 52 1067 1673 18.000000724 27.000000724 2 650 662 1312 860744
388	443539 28 1092 1092 18.0000025636 18.0000025636 1 5568 5568 5568 31002624
389	443567 2745 1092 1092 0.1 18 180 0 0 0 0
390	446312 25 1092 1092 18.0000025636 18.0000025636 1 0 0 0 0
391	446337 28 1092 1092 18.0000025636 18.0000025636 1 5568 5568 5568 31002624
392	446365 2745 1092 1092 0.1 18 180 0 0 0 0
393	449110 27 1092 1092 18.0000025636 18.0000025636 1 696 696 696 484416
394	449137 25 1092 1092 18.0000025636 18.0000025636 1 0 0 0 0
395	449162 25 1092 1092 18.0000025636 18.0000025636 1 0 0 0 0
396	449187 27 1093 1093 18.0000031268 18.0000031268 1 696 696 696 484416
397	449214 27 1095 1095 18.0000031768 18.0000031768 1 696 696 696 484416
398	449241 27 1095 1095 18.0000031768 18.0000031768 1 696 696 696 484416
399	449268 27 1096 1096 18.0000031768 18.0000031768 1 678 678 678 459684
400	449295 27 1098 1098 18.0000031768 18.0000031768 1 658 658 658 432964
401	449322 26 1204 1204 19.000000724 19.000000724 1 337 337 337 113569
402	449348 56 1215 1903 19.0000010868 29.0000024492 2 3064 5416 8480 38721152
403	449404 4487 1215 1903 0.1 29 290 0 30640 30640 938809600
404	453891 50 1215 1903 19.0000010868 29.0000024492 2 0 0 0 0
405	453941 56 1215 1903 19.0000010868 29.0000024492 2 3064 5416 8480 38721152
406	453997 4487 1215 1903 0.1 29 290 0 30640 30640 938809600
407	458484 54 1215 1903 19.0000010868 29.0000024492 2 383 677 1060 605018
408	458538 50 1215 1903 19.0000010868 29.0000024492 2 0 0 0 0
409	458588 50 1215 1903 19.0000010868 29.0000024492 2 0 0 0 0
410	458638 54 1216 1904 19.0000013996 29.0000029972 2 383 677 1060 605018
411	458692 54 1218 1906 19.0000014496 29.0000030472 2 383 677 1060 605018
412	458746 54 1218 1906 19.0000014496 29.0000030472 2 383 677 1060 605018
413	458800 54 1219 1907 19.0000014496 29.0000030472 2 365 659 1024 567506
414	458854 54 1221 1909 19.0000014496 29.0000030472 2 345 639 984 527346
415	458908 26 1380 1380 23.000000724 23.000000724 1 556 556 556 309136
416	458934 32 1440 1996 25 31 2 133 889 1022 808010
417	458966 43 1442 2287 25 34.0000006552 2 389 921 1310 999562
418	459009 56 1714 1733 27.0000022908 27.0000029508 2 4888 5664 10552 55973440
419	459065 4167 1714 1714 0.1 27 270 0 0 0 0
420	463232 50 1714 1733 27.0000022908 27.0000029508 2 0 0 0 0
421	463282 56 1714 1733 27.0000022908 27.0000029508 2 4888 5664 10552 55973440
422	463338 4167 1714 1714 0.1 27 270 0 0 0 0
423	467505 54 1714 1733 27.0000022908 27.0000029508 2 611 708 1319 874585
424	467559 50 1714 1733 27.0000022908 27.0000029508 2 0 0 0 0
425	467609 50 1714 1733 27.0000022908 27.0000029508 2 0 0 0 0
426	467659 53 1720 1734 27.000002786 27.0000035236 2 611 708 1319 874585
427	467712 53 1722 1736 27.000002836 27.0000035736 2 611 708 1319 874585
428	467765 53 1722 1736 27.000002836 27.0000035736 2 611 708 1319 874585
429	467818 53 1723 1737 27.000002836 27.0000035736 2 593 690 1283 827749
430	467871 53 1725 1739 27.000002836 27.0000035736 2 573 670 1243 777229
431	467924 15 1741 1741 28 28 1 68 68 68 4624
432	467939 27 1878 1878 29.0000006552 29.0000006552 1 631 631 631 398161
433	467966 27 1962 1962 30.0000006552 30.0000006552 1 611 611 611 373321
39	467993 1214 2373 2373 27.1 35.000000359948 81 0 67200 67200 4515840000
42	469207 1214 2373 2373 27.1 35.000000359948 81 0 67200 67200 4515840000
52	470421 40 2373 2373 35.000000359948 35.000000359948 1 1466878549.1238 1466878549.1238 1466878549.1238 2.1517326778794e+18
55	470461 40 2373 2373 35.000000359948 35.000000359948 1 1466878549.1238 1466878549.1238 1466878549.1238 2.1517326778794e+18
65	470501 40 2373 2373 35.000000359948 35.000000359948 1 2933757098.2475 2933757098.2475 2933757098.2475 8.6069307115177e+18
68	470541 40 2373 2373 35.000000359948 35.000000359948 1 2933757098.2475 2933757098.2475 2933757098.2475 8.6069307115177e+18
82	470581 621 2373 2373 31.1 35.000000359948 41 0 5280 5280 27878400
85	471202 621 2373 2373 31.1 35.000000359948 41 0 5280 5280 27878400
90	471823 178 2373 2373 34.1 35.000000359948 11 0 82640 82640 6829369600
93	472001 178 2373 2373 34.1 35.000000359948 11 0 82640 82640 6829369600
106	472179 189 2373 2373 34.1 35.000000359948 11 0 82640 82640 6829369600
109	472368 189 2373 2373 34.1 35.000000359948 11 0 82640 82640 6829369600
123	472557 662 2373 2373 31.1 35.000000359948 41 0 5280 5280 27878400
126	473219 662 2373 2373 31.1 35.000000359948 41 0 5280 5280 27878400
131	473881 504 2373 2373 32.1 35.000000359948 31 0 5280 5280 27878400
134	474385 504 2373 2373 32.1 35.000000359948 31 0 5280 5280 27878400
139	474889 346 2373 2373 33.1 35.000000359948 21 0 5280 5280 27878400
142	475235 346 2373 2373 33.1 35.000000359948 21 0 5280 5280 27878400
159	475581 41 2373 2373 35.000000359948 35.000000359948 1 1466878549.1238 1466878549.1238 1466878549.1238 2.1517326778794e+18
162	475622 41 2373 2373 35.000000359948 35.000000359948 1 1466878549.1238 1466878549.1238 1466878549.1238 2.1517326778794e+18
171	475663 188 2373 2373 34.1 35.000000359948 11 0 5280 5280 27878400
174	475851 188 2373 2373 34.1 35.000000359948 11 0 5280 5280 27878400
180	476039 189 2373 2373 34.1 35.000000359948 11 0 77360 77360 5984569600
183	476228 189 2373 2373 34.1 35.000000359948 11 0 77360 77360 5984569600
190	476417 1611 2373 2373 25.1 35.000000359948 101 0 34800 34800 1211040000
193	478028 1611 2373 2373 25.1 35.000000359948 101 0 34800 34800 1211040000
202	479639 346 2373 2373 33.1 35.000000359948 21 0 5280 5280 27878400
205	479985 346 2373 2373 33.1 35.000000359948 21 0 5280 5280 27878400
216	480331 504 2373 2373 32.1 35.000000359948 31 0 5280 5280 27878400
219	480835 504 2373 2373 32.1 35.000000359948 31 0 5280 5280 27878400
233	481339 188 2373 2373 34.1 35.000000359948 11 0 5280 5280 27878400
236	481527 188 2373 2373 34.1 35.000000359948 11 0 5280 5280 27878400
250	481715 188 2373 2373 34.1 35.000000359948 11 0 5280 5280 27878400
253	481903 188 2373 2373 34.1 35.000000359948 11 0 5280 5280 27878400
258	482091 41 2373 2373 35.000000359948 35.000000359948 1 1466878549.1238 1466878549.1238 1466878549.1238 2.1517326778794e+18
261	482132 41 2373 2373 35.000000359948 35.000000359948 1 1466878549.1238 1466878549.1238 1466878549.1238 2.1517326778794e+18
274	482173 41 2373 2373 35.000000359948 35.000000359948 1 1466878549.1238 1466878549.1238 1466878549.1238 2.1517326778794e+18
277	482214 41 2373 2373 35.000000359948 35.000000359948 1 1466878549.1238 1466878549.1238 1466878549.1238 2.1517326778794e+18
285	482255 820 2373 2373 30.1 35.000000359948 51 0 5280 5280 27878400
288	483075 820 2373 2373 30.1 35.000000359948 51 0 5280 5280 27878400
296	483895 820 2373 2373 30.1 35.000000359948 51 0 5280 5280 27878400
299	484715 820 2373 2373 30.1 35.000000359948 51 0 5280 5280 27878400
309	485535 663 2373 2373 31.1 35.000000359948 41 0 14320 14320 205062400
312	486198 663 2373 2373 31.1 35.000000359948 41 0 14320 14320 205062400
318	486861 978 2373 2373 29.1 35.000000359948 61 0 5280 5280 27878400
321	487839 978 2373 2373 29.1 35.000000359948 61 0 5280 5280 27878400
337	488817 41 2373 2373 35.000000359948 35.000000359948 1 1466878549.1238 1466878549.1238 1466878549.1238 2.1517326778794e+18
340	488858 41 2373 2373 35.000000359948 35.000000359948 1 1466878549.1238 1466878549.1238 1466878549.1238 2.1517326778794e+18
348	488899 189 2373 2373 34.1 35.000000359948 11 0 77360 77360 5984569600
351	489088 189 2373 2373 34.1 35.000000359948 11 0 77360 77360 5984569600
363	489277 1136 2373 2373 28.1 35.000000359948 71 0 5280 5280 27878400
366	490413 1136 2373 2373 28.1 35.000000359948 71 0 5280 5280 27878400
376	491549 663 2373 2373 31.1 35.000000359948 41 0 14320 14320 205062400
379	492212 663 2373 2373 31.1 35.000000359948 41 0 14320 14320 205062400
389	492875 2717 2373 2373 18.1 35.000000359948 171 0 55680 55680 3100262400
392	495592 2717 2373 2373 18.1 35.000000359948 171 0 55680 55680 3100262400
403	498309 979 2373 2373 29.1 35.000000359948 61 0 54160 54160 2933305600
406	499288 979 2373 2373 29.1 35.000000359948 61 0 54160 54160 2933305600
419	500267 1296 2373 2373 27.1 35.000000359948 81 0 105520 105520 11134470400
422	501563 1296 2373 2373 27.1 35.000000359948 81 0 105520 105520 11134470400

