version 3
run General-0-20221213-23:06:03-30920
attr configname General
attr datetime 20221213-23:06:03
attr datetimef 20221213-230603
attr experiment General
attr inifile omnetpp.ini
attr iterationvars "$b1num=int(uniform(2, 5)), $b2num=int(uniform(2, 5)), $b3num=int(uniform(2, 5)), $xnum=int(uniform(1, 2))"
attr iterationvarsd b1num=int(uniform(2,_5))/b2num=int(uniform(2,_5))/b3num=int(uniform(2,_5))/xnum=int(uniform(1,_2))
attr iterationvarsf b1num=int(uniform(2,_5)),b2num=int(uniform(2,_5)),b3num=int(uniform(2,_5)),xnum=int(uniform(1,_2))-
attr measurement "$b1num=int(uniform(2, 5)), $b2num=int(uniform(2, 5)), $b3num=int(uniform(2, 5)), $xnum=int(uniform(1, 2))"
attr network Network
attr processid 30920
attr repetition 0
attr replication #0
attr resultdir results
attr runnumber 0
attr seedset 0
itervar b1num "int(uniform(2, 5))"
itervar b2num "int(uniform(2, 5))"
itervar b3num "int(uniform(2, 5))"
itervar xnum "int(uniform(1, 2))"
config image-path ../../../omnetpp-6.0.1/samples/inet4.4/images
config network Network
config sim-time-limit 300s
config output-scalar-file results/scalars.sca
config output-vector-file results/vectors.vec
config seed-0-mt 1
config *.configurator.dumpAddresses true
config *.configurator.dumpTopology true
config *.configurator.dumpLinks true
config *.configurator.dumpRoutes true
config *.configurator.config "xmldoc(\"config.xml\")"
config *.visualizer.interfaceTableVisualizer.displayInterfaceTables true
config *.visualizer.interfaceTableVisualizer.nodeFilter "\"not (*router*)\""
config *.*.ipv4.arp.typename GlobalArp
config *.*.ipv4.routingTable.netmaskRoutes "\"\""
config *.server.numApps 1
config *.server.app[0].typename ServerApp
config *.server.app[0].heartbeatThreshold 15
config *.bunker1_host_number "int(uniform(2, 5))"
config *.bunker2_host_number "int(uniform(2, 5))"
config *.bunker3_host_number "int(uniform(2, 5))"
config *.nonExist_host_number "int(uniform(1, 2))"
config *.bunker*host[*].numApps 2
config *.bunker*host[*].app[*].destAddress "\"server\""
config *.bunker*host[*].app[0].sendInterval "int(uniform(5s, 10s))"
config *.bunker*host[*].app[1].sendInterval "int(uniform(6s, 12s))"
config *.bunker*host[*].app[0].typename HeartBeatApp
config *.bunker*host[*].app[1].typename ClientApp
config *.bunker*host[*].app[1].bunker1_host_number "int(uniform(2, 5))"
config *.bunker*host[*].app[1].bunker2_host_number "int(uniform(2, 5))"
config *.bunker*host[*].app[1].bunker3_host_number "int(uniform(2, 5))"
config *.bunker*host[*].app[1].nonExist_host_number "int(uniform(1, 2))"

vector 0 Network.server.udp passedUpPk:vector(count) ETV
attr interpolationmode none
attr recordingmode vector(count)
attr source packetSentToUpper
attr title "packets passed up, count"
vector 1 Network.server.udp droppedPkWrongPort:vector(count) ETV
attr interpolationmode none
attr recordingmode vector(count)
attr source packetDropReasonIsNoPortFound(packetDropped)
attr title "packets dropped (wrong port), count"
vector 2 Network.server.udp droppedPkBadChecksum:vector(count) ETV
attr interpolationmode none
attr recordingmode vector(count)
attr source packetDropReasonIsIncorrectlyReceived(packetDropped)
attr title "packets dropped (checksum error), count"
vector 3 Network.bunker1host[0].udp passedUpPk:vector(count) ETV
attr interpolationmode none
attr recordingmode vector(count)
attr source packetSentToUpper
attr title "packets passed up, count"
vector 4 Network.bunker1host[0].udp droppedPkWrongPort:vector(count) ETV
attr interpolationmode none
attr recordingmode vector(count)
attr source packetDropReasonIsNoPortFound(packetDropped)
attr title "packets dropped (wrong port), count"
vector 5 Network.bunker1host[0].udp droppedPkBadChecksum:vector(count) ETV
attr interpolationmode none
attr recordingmode vector(count)
attr source packetDropReasonIsIncorrectlyReceived(packetDropped)
attr title "packets dropped (checksum error), count"
vector 6 Network.bunker1host[1].udp passedUpPk:vector(count) ETV
attr interpolationmode none
attr recordingmode vector(count)
attr source packetSentToUpper
attr title "packets passed up, count"
vector 7 Network.bunker1host[1].udp droppedPkWrongPort:vector(count) ETV
attr interpolationmode none
attr recordingmode vector(count)
attr source packetDropReasonIsNoPortFound(packetDropped)
attr title "packets dropped (wrong port), count"
vector 8 Network.bunker1host[1].udp droppedPkBadChecksum:vector(count) ETV
attr interpolationmode none
attr recordingmode vector(count)
attr source packetDropReasonIsIncorrectlyReceived(packetDropped)
attr title "packets dropped (checksum error), count"
vector 9 Network.bunker1host[2].udp passedUpPk:vector(count) ETV
attr interpolationmode none
attr recordingmode vector(count)
attr source packetSentToUpper
attr title "packets passed up, count"
vector 10 Network.bunker1host[2].udp droppedPkWrongPort:vector(count) ETV
attr interpolationmode none
attr recordingmode vector(count)
attr source packetDropReasonIsNoPortFound(packetDropped)
attr title "packets dropped (wrong port), count"
vector 11 Network.bunker1host[2].udp droppedPkBadChecksum:vector(count) ETV
attr interpolationmode none
attr recordingmode vector(count)
attr source packetDropReasonIsIncorrectlyReceived(packetDropped)
attr title "packets dropped (checksum error), count"
vector 12 Network.bunker2host[0].udp passedUpPk:vector(count) ETV
attr interpolationmode none
attr recordingmode vector(count)
attr source packetSentToUpper
attr title "packets passed up, count"
vector 13 Network.bunker2host[0].udp droppedPkWrongPort:vector(count) ETV
attr interpolationmode none
attr recordingmode vector(count)
attr source packetDropReasonIsNoPortFound(packetDropped)
attr title "packets dropped (wrong port), count"
vector 14 Network.bunker2host[0].udp droppedPkBadChecksum:vector(count) ETV
attr interpolationmode none
attr recordingmode vector(count)
attr source packetDropReasonIsIncorrectlyReceived(packetDropped)
attr title "packets dropped (checksum error), count"
vector 15 Network.bunker2host[1].udp passedUpPk:vector(count) ETV
attr interpolationmode none
attr recordingmode vector(count)
attr source packetSentToUpper
attr title "packets passed up, count"
vector 16 Network.bunker2host[1].udp droppedPkWrongPort:vector(count) ETV
attr interpolationmode none
attr recordingmode vector(count)
attr source packetDropReasonIsNoPortFound(packetDropped)
attr title "packets dropped (wrong port), count"
vector 17 Network.bunker2host[1].udp droppedPkBadChecksum:vector(count) ETV
attr interpolationmode none
attr recordingmode vector(count)
attr source packetDropReasonIsIncorrectlyReceived(packetDropped)
attr title "packets dropped (checksum error), count"
vector 18 Network.bunker2host[2].udp passedUpPk:vector(count) ETV
attr interpolationmode none
attr recordingmode vector(count)
attr source packetSentToUpper
attr title "packets passed up, count"
vector 19 Network.bunker2host[2].udp droppedPkWrongPort:vector(count) ETV
attr interpolationmode none
attr recordingmode vector(count)
attr source packetDropReasonIsNoPortFound(packetDropped)
attr title "packets dropped (wrong port), count"
vector 20 Network.bunker2host[2].udp droppedPkBadChecksum:vector(count) ETV
attr interpolationmode none
attr recordingmode vector(count)
attr source packetDropReasonIsIncorrectlyReceived(packetDropped)
attr title "packets dropped (checksum error), count"
vector 21 Network.bunker2host[3].udp passedUpPk:vector(count) ETV
attr interpolationmode none
attr recordingmode vector(count)
attr source packetSentToUpper
attr title "packets passed up, count"
vector 22 Network.bunker2host[3].udp droppedPkWrongPort:vector(count) ETV
attr interpolationmode none
attr recordingmode vector(count)
attr source packetDropReasonIsNoPortFound(packetDropped)
attr title "packets dropped (wrong port), count"
vector 23 Network.bunker2host[3].udp droppedPkBadChecksum:vector(count) ETV
attr interpolationmode none
attr recordingmode vector(count)
attr source packetDropReasonIsIncorrectlyReceived(packetDropped)
attr title "packets dropped (checksum error), count"
vector 24 Network.bunker3host[0].udp passedUpPk:vector(count) ETV
attr interpolationmode none
attr recordingmode vector(count)
attr source packetSentToUpper
attr title "packets passed up, count"
vector 25 Network.bunker3host[0].udp droppedPkWrongPort:vector(count) ETV
attr interpolationmode none
attr recordingmode vector(count)
attr source packetDropReasonIsNoPortFound(packetDropped)
attr title "packets dropped (wrong port), count"
vector 26 Network.bunker3host[0].udp droppedPkBadChecksum:vector(count) ETV
attr interpolationmode none
attr recordingmode vector(count)
attr source packetDropReasonIsIncorrectlyReceived(packetDropped)
attr title "packets dropped (checksum error), count"
vector 27 Network.bunker3host[1].udp passedUpPk:vector(count) ETV
attr interpolationmode none
attr recordingmode vector(count)
attr source packetSentToUpper
attr title "packets passed up, count"
vector 28 Network.bunker3host[1].udp droppedPkWrongPort:vector(count) ETV
attr interpolationmode none
attr recordingmode vector(count)
attr source packetDropReasonIsNoPortFound(packetDropped)
attr title "packets dropped (wrong port), count"
vector 29 Network.bunker3host[1].udp droppedPkBadChecksum:vector(count) ETV
attr interpolationmode none
attr recordingmode vector(count)
attr source packetDropReasonIsIncorrectlyReceived(packetDropped)
attr title "packets dropped (checksum error), count"
vector 30 Network.bunker3host[2].udp passedUpPk:vector(count) ETV
attr interpolationmode none
attr recordingmode vector(count)
attr source packetSentToUpper
attr title "packets passed up, count"
vector 31 Network.bunker3host[2].udp droppedPkWrongPort:vector(count) ETV
attr interpolationmode none
attr recordingmode vector(count)
attr source packetDropReasonIsNoPortFound(packetDropped)
attr title "packets dropped (wrong port), count"
vector 32 Network.bunker3host[2].udp droppedPkBadChecksum:vector(count) ETV
attr interpolationmode none
attr recordingmode vector(count)
attr source packetDropReasonIsIncorrectlyReceived(packetDropped)
attr title "packets dropped (checksum error), count"
vector 33 Network.bunker3host[3].udp passedUpPk:vector(count) ETV
attr interpolationmode none
attr recordingmode vector(count)
attr source packetSentToUpper
attr title "packets passed up, count"
vector 34 Network.bunker3host[3].udp droppedPkWrongPort:vector(count) ETV
attr interpolationmode none
attr recordingmode vector(count)
attr source packetDropReasonIsNoPortFound(packetDropped)
attr title "packets dropped (wrong port), count"
vector 35 Network.bunker3host[3].udp droppedPkBadChecksum:vector(count) ETV
attr interpolationmode none
attr recordingmode vector(count)
attr source packetDropReasonIsIncorrectlyReceived(packetDropped)
attr title "packets dropped (checksum error), count"
vector 36 Network.bunker3host[2].udp packetSent:vector(packetBytes) ETV
attr interpolationmode none
attr recordingmode vector(packetBytes)
attr source packetSent
attr title "packets sent, packetBytes"
vector 37 Network.bunker3host[2].ethernet encapPk:vector(packetBytes) ETV
attr interpolationmode none
attr recordingmode vector(packetBytes)
attr source encapPk
attr title "packets encapsulated, packetBytes"
vector 38 Network.bunker3host[2].eth[0].queue incomingPacketLengths:vector ETV
attr interpolationmode none
attr recordingmode vector
attr source packetLength(packetPushStarted)
attr title "incoming packet lengths"
attr unit b
vector 39 Network.bunker3host[2].eth[0].queue incomingDataRate:vector ETV
attr interpolationmode linear
attr recordingmode vector
attr source throughput(packetPushStarted)
attr title "incoming datarate"
attr unit bps
vector 40 Network.bunker3host[2].eth[0].queue queueingTime:vector ETV
attr interpolationmode none
attr recordingmode vector
attr source queueingTime(packetPulled)
attr title "queueing times"
attr unit s
vector 41 Network.bunker3host[2].eth[0].queue outgoingPacketLengths:vector ETV
attr interpolationmode none
attr recordingmode vector
attr source packetLength(packetPulled)
attr title "outgoing packet lengths"
attr unit b
vector 42 Network.bunker3host[2].eth[0].queue outgoingDataRate:vector ETV
attr interpolationmode linear
attr recordingmode vector
attr source throughput(packetPulled)
attr title "outgoing datarate"
attr unit bps
vector 43 Network.bunker3host[2].eth[0].mac packetReceivedFromUpper:vector(packetBytes) ETV
attr interpolationmode none
attr recordingmode vector(packetBytes)
attr source packetReceivedFromUpper
attr title "packet bytes from higher layer, packetBytes"
vector 44 Network.bunker3host[2].eth[0].queue queueLength:vector ETV
attr autoWarmupFilter false
attr interpolationmode sample-hold
attr recordingmode vector
attr source "warmup(atomic(constant0(packetPushEnded) + count(packetPushStarted) - count(packetPulled) - count(packetRemoved) - count(packetDropped)))"
attr title "queue length"
attr unit pk
vector 45 Network.bunker3host[2].eth[0].queue queueBitLength:vector ETV
attr autoWarmupFilter false
attr interpolationmode sample-hold
attr recordingmode vector
attr source "warmup(atomic(constant0(packetPushEnded) + sum(packetLength(packetPushStarted)) - sum(packetLength(packetPulled)) - sum(packetLength(packetRemoved)) - sum(packetLength(packetDropped))))"
attr title "queue bit length"
attr unit b
vector 46 Network.bunker3host[2].eth[0].mac txPk:vector(packetBytes) ETV
attr interpolationmode none
attr recordingmode vector(packetBytes)
attr source packetSentToLower
attr title "packets transmitted, packetBytes"
vector 47 Network.bunker3router.eth[3].mac rxPkOk:vector(packetBytes) ETV
attr interpolationmode none
attr recordingmode vector(packetBytes)
attr source rxPkOk
attr title "packets received OK, packetBytes"
vector 48 Network.bunker3router.eth[3].mac passedUpPk:vector(packetBytes) ETV
attr interpolationmode none
attr recordingmode vector(packetBytes)
attr source packetSentToUpper
attr title "packets passed to higher layer, packetBytes"
vector 49 Network.bunker3router.ethernet decapPk:vector(packetBytes) ETV
attr interpolationmode none
attr recordingmode vector(packetBytes)
attr source decapPk
attr title "packets decapsulated, packetBytes"
vector 50 Network.bunker3router.ethernet encapPk:vector(packetBytes) ETV
attr interpolationmode none
attr recordingmode vector(packetBytes)
attr source encapPk
attr title "packets encapsulated, packetBytes"
vector 51 Network.bunker3router.eth[0].queue incomingPacketLengths:vector ETV
attr interpolationmode none
attr recordingmode vector
attr source packetLength(packetPushStarted)
attr title "incoming packet lengths"
attr unit b
vector 52 Network.bunker3router.eth[0].queue incomingDataRate:vector ETV
attr interpolationmode linear
attr recordingmode vector
attr source throughput(packetPushStarted)
attr title "incoming datarate"
attr unit bps
vector 53 Network.bunker3router.eth[0].queue queueingTime:vector ETV
attr interpolationmode none
attr recordingmode vector
attr source queueingTime(packetPulled)
attr title "queueing times"
attr unit s
vector 54 Network.bunker3router.eth[0].queue outgoingPacketLengths:vector ETV
attr interpolationmode none
attr recordingmode vector
attr source packetLength(packetPulled)
attr title "outgoing packet lengths"
attr unit b
vector 55 Network.bunker3router.eth[0].queue outgoingDataRate:vector ETV
attr interpolationmode linear
attr recordingmode vector
attr source throughput(packetPulled)
attr title "outgoing datarate"
attr unit bps
vector 56 Network.bunker3router.eth[0].mac packetReceivedFromUpper:vector(packetBytes) ETV
attr interpolationmode none
attr recordingmode vector(packetBytes)
attr source packetReceivedFromUpper
attr title "packet bytes from higher layer, packetBytes"
vector 57 Network.bunker3router.eth[0].queue queueLength:vector ETV
attr autoWarmupFilter false
attr interpolationmode sample-hold
attr recordingmode vector
attr source "warmup(atomic(constant0(packetPushEnded) + count(packetPushStarted) - count(packetPulled) - count(packetRemoved) - count(packetDropped)))"
attr title "queue length"
attr unit pk
vector 58 Network.bunker3router.eth[0].queue queueBitLength:vector ETV
attr autoWarmupFilter false
attr interpolationmode sample-hold
attr recordingmode vector
attr source "warmup(atomic(constant0(packetPushEnded) + sum(packetLength(packetPushStarted)) - sum(packetLength(packetPulled)) - sum(packetLength(packetRemoved)) - sum(packetLength(packetDropped))))"
attr title "queue bit length"
attr unit b
vector 59 Network.bunker3router.eth[0].mac txPk:vector(packetBytes) ETV
attr interpolationmode none
attr recordingmode vector(packetBytes)
attr source packetSentToLower
attr title "packets transmitted, packetBytes"
vector 60 Network.mainrouter.eth[2].mac rxPkOk:vector(packetBytes) ETV
attr interpolationmode none
attr recordingmode vector(packetBytes)
attr source rxPkOk
attr title "packets received OK, packetBytes"
vector 61 Network.mainrouter.eth[2].mac passedUpPk:vector(packetBytes) ETV
attr interpolationmode none
attr recordingmode vector(packetBytes)
attr source packetSentToUpper
attr title "packets passed to higher layer, packetBytes"
vector 62 Network.mainrouter.ethernet decapPk:vector(packetBytes) ETV
attr interpolationmode none
attr recordingmode vector(packetBytes)
attr source decapPk
attr title "packets decapsulated, packetBytes"
vector 63 Network.mainrouter.ethernet encapPk:vector(packetBytes) ETV
attr interpolationmode none
attr recordingmode vector(packetBytes)
attr source encapPk
attr title "packets encapsulated, packetBytes"
vector 64 Network.mainrouter.eth[3].queue incomingPacketLengths:vector ETV
attr interpolationmode none
attr recordingmode vector
attr source packetLength(packetPushStarted)
attr title "incoming packet lengths"
attr unit b
vector 65 Network.mainrouter.eth[3].queue incomingDataRate:vector ETV
attr interpolationmode linear
attr recordingmode vector
attr source throughput(packetPushStarted)
attr title "incoming datarate"
attr unit bps
vector 66 Network.mainrouter.eth[3].queue queueingTime:vector ETV
attr interpolationmode none
attr recordingmode vector
attr source queueingTime(packetPulled)
attr title "queueing times"
attr unit s
vector 67 Network.mainrouter.eth[3].queue outgoingPacketLengths:vector ETV
attr interpolationmode none
attr recordingmode vector
attr source packetLength(packetPulled)
attr title "outgoing packet lengths"
attr unit b
vector 68 Network.mainrouter.eth[3].queue outgoingDataRate:vector ETV
attr interpolationmode linear
attr recordingmode vector
attr source throughput(packetPulled)
attr title "outgoing datarate"
attr unit bps
vector 69 Network.mainrouter.eth[3].mac packetReceivedFromUpper:vector(packetBytes) ETV
attr interpolationmode none
attr recordingmode vector(packetBytes)
attr source packetReceivedFromUpper
attr title "packet bytes from higher layer, packetBytes"
vector 70 Network.mainrouter.eth[3].queue queueLength:vector ETV
attr autoWarmupFilter false
attr interpolationmode sample-hold
attr recordingmode vector
attr source "warmup(atomic(constant0(packetPushEnded) + count(packetPushStarted) - count(packetPulled) - count(packetRemoved) - count(packetDropped)))"
attr title "queue length"
attr unit pk
vector 71 Network.mainrouter.eth[3].queue queueBitLength:vector ETV
attr autoWarmupFilter false
attr interpolationmode sample-hold
attr recordingmode vector
attr source "warmup(atomic(constant0(packetPushEnded) + sum(packetLength(packetPushStarted)) - sum(packetLength(packetPulled)) - sum(packetLength(packetRemoved)) - sum(packetLength(packetDropped))))"
attr title "queue bit length"
attr unit b
vector 72 Network.mainrouter.eth[3].mac txPk:vector(packetBytes) ETV
attr interpolationmode none
attr recordingmode vector(packetBytes)
attr source packetSentToLower
attr title "packets transmitted, packetBytes"
vector 73 Network.server.eth[0].mac rxPkOk:vector(packetBytes) ETV
attr interpolationmode none
attr recordingmode vector(packetBytes)
attr source rxPkOk
attr title "packets received OK, packetBytes"
vector 74 Network.server.eth[0].mac passedUpPk:vector(packetBytes) ETV
attr interpolationmode none
attr recordingmode vector(packetBytes)
attr source packetSentToUpper
attr title "packets passed to higher layer, packetBytes"
vector 75 Network.server.ethernet decapPk:vector(packetBytes) ETV
attr interpolationmode none
attr recordingmode vector(packetBytes)
attr source decapPk
attr title "packets decapsulated, packetBytes"
vector 76 Network.server.udp packetReceived:vector(packetBytes) ETV
attr interpolationmode none
attr recordingmode vector(packetBytes)
attr source packetReceived
attr title "packets received, packetBytes"
vector 77 Network.bunker2host[0].udp packetSent:vector(packetBytes) ETV
attr interpolationmode none
attr recordingmode vector(packetBytes)
attr source packetSent
attr title "packets sent, packetBytes"
vector 78 Network.bunker2host[1].udp packetSent:vector(packetBytes) ETV
attr interpolationmode none
attr recordingmode vector(packetBytes)
attr source packetSent
attr title "packets sent, packetBytes"
vector 79 Network.bunker2host[0].ethernet encapPk:vector(packetBytes) ETV
attr interpolationmode none
attr recordingmode vector(packetBytes)
attr source encapPk
attr title "packets encapsulated, packetBytes"
vector 80 Network.bunker2host[1].ethernet encapPk:vector(packetBytes) ETV
attr interpolationmode none
attr recordingmode vector(packetBytes)
attr source encapPk
attr title "packets encapsulated, packetBytes"
vector 81 Network.bunker2host[0].eth[0].queue incomingPacketLengths:vector ETV
attr interpolationmode none
attr recordingmode vector
attr source packetLength(packetPushStarted)
attr title "incoming packet lengths"
attr unit b
vector 82 Network.bunker2host[0].eth[0].queue incomingDataRate:vector ETV
attr interpolationmode linear
attr recordingmode vector
attr source throughput(packetPushStarted)
attr title "incoming datarate"
attr unit bps
vector 83 Network.bunker2host[0].eth[0].queue queueingTime:vector ETV
attr interpolationmode none
attr recordingmode vector
attr source queueingTime(packetPulled)
attr title "queueing times"
attr unit s
vector 84 Network.bunker2host[0].eth[0].queue outgoingPacketLengths:vector ETV
attr interpolationmode none
attr recordingmode vector
attr source packetLength(packetPulled)
attr title "outgoing packet lengths"
attr unit b
vector 85 Network.bunker2host[0].eth[0].queue outgoingDataRate:vector ETV
attr interpolationmode linear
attr recordingmode vector
attr source throughput(packetPulled)
attr title "outgoing datarate"
attr unit bps
vector 86 Network.bunker2host[0].eth[0].mac packetReceivedFromUpper:vector(packetBytes) ETV
attr interpolationmode none
attr recordingmode vector(packetBytes)
attr source packetReceivedFromUpper
attr title "packet bytes from higher layer, packetBytes"
vector 87 Network.bunker2host[0].eth[0].queue queueLength:vector ETV
attr autoWarmupFilter false
attr interpolationmode sample-hold
attr recordingmode vector
attr source "warmup(atomic(constant0(packetPushEnded) + count(packetPushStarted) - count(packetPulled) - count(packetRemoved) - count(packetDropped)))"
attr title "queue length"
attr unit pk
vector 88 Network.bunker2host[0].eth[0].queue queueBitLength:vector ETV
attr autoWarmupFilter false
attr interpolationmode sample-hold
attr recordingmode vector
attr source "warmup(atomic(constant0(packetPushEnded) + sum(packetLength(packetPushStarted)) - sum(packetLength(packetPulled)) - sum(packetLength(packetRemoved)) - sum(packetLength(packetDropped))))"
attr title "queue bit length"
attr unit b
vector 89 Network.bunker2host[1].eth[0].queue incomingPacketLengths:vector ETV
attr interpolationmode none
attr recordingmode vector
attr source packetLength(packetPushStarted)
attr title "incoming packet lengths"
attr unit b
vector 90 Network.bunker2host[1].eth[0].queue incomingDataRate:vector ETV
attr interpolationmode linear
attr recordingmode vector
attr source throughput(packetPushStarted)
attr title "incoming datarate"
attr unit bps
vector 91 Network.bunker2host[1].eth[0].queue queueingTime:vector ETV
attr interpolationmode none
attr recordingmode vector
attr source queueingTime(packetPulled)
attr title "queueing times"
attr unit s
vector 92 Network.bunker2host[1].eth[0].queue outgoingPacketLengths:vector ETV
attr interpolationmode none
attr recordingmode vector
attr source packetLength(packetPulled)
attr title "outgoing packet lengths"
attr unit b
vector 93 Network.bunker2host[1].eth[0].queue outgoingDataRate:vector ETV
attr interpolationmode linear
attr recordingmode vector
attr source throughput(packetPulled)
attr title "outgoing datarate"
attr unit bps
vector 94 Network.bunker2host[1].eth[0].mac packetReceivedFromUpper:vector(packetBytes) ETV
attr interpolationmode none
attr recordingmode vector(packetBytes)
attr source packetReceivedFromUpper
attr title "packet bytes from higher layer, packetBytes"
vector 95 Network.bunker2host[1].eth[0].queue queueLength:vector ETV
attr autoWarmupFilter false
attr interpolationmode sample-hold
attr recordingmode vector
attr source "warmup(atomic(constant0(packetPushEnded) + count(packetPushStarted) - count(packetPulled) - count(packetRemoved) - count(packetDropped)))"
attr title "queue length"
attr unit pk
vector 96 Network.bunker2host[1].eth[0].queue queueBitLength:vector ETV
attr autoWarmupFilter false
attr interpolationmode sample-hold
attr recordingmode vector
attr source "warmup(atomic(constant0(packetPushEnded) + sum(packetLength(packetPushStarted)) - sum(packetLength(packetPulled)) - sum(packetLength(packetRemoved)) - sum(packetLength(packetDropped))))"
attr title "queue bit length"
attr unit b
vector 97 Network.bunker2host[0].eth[0].mac txPk:vector(packetBytes) ETV
attr interpolationmode none
attr recordingmode vector(packetBytes)
attr source packetSentToLower
attr title "packets transmitted, packetBytes"
vector 98 Network.bunker2host[1].eth[0].mac txPk:vector(packetBytes) ETV
attr interpolationmode none
attr recordingmode vector(packetBytes)
attr source packetSentToLower
attr title "packets transmitted, packetBytes"
vector 99 Network.bunker2router.eth[1].mac rxPkOk:vector(packetBytes) ETV
attr interpolationmode none
attr recordingmode vector(packetBytes)
attr source rxPkOk
attr title "packets received OK, packetBytes"
vector 100 Network.bunker2router.eth[1].mac passedUpPk:vector(packetBytes) ETV
attr interpolationmode none
attr recordingmode vector(packetBytes)
attr source packetSentToUpper
attr title "packets passed to higher layer, packetBytes"
vector 101 Network.bunker2router.eth[2].mac rxPkOk:vector(packetBytes) ETV
attr interpolationmode none
attr recordingmode vector(packetBytes)
attr source rxPkOk
attr title "packets received OK, packetBytes"
vector 102 Network.bunker2router.eth[2].mac passedUpPk:vector(packetBytes) ETV
attr interpolationmode none
attr recordingmode vector(packetBytes)
attr source packetSentToUpper
attr title "packets passed to higher layer, packetBytes"
vector 103 Network.bunker2router.ethernet decapPk:vector(packetBytes) ETV
attr interpolationmode none
attr recordingmode vector(packetBytes)
attr source decapPk
attr title "packets decapsulated, packetBytes"
vector 104 Network.bunker2router.ethernet encapPk:vector(packetBytes) ETV
attr interpolationmode none
attr recordingmode vector(packetBytes)
attr source encapPk
attr title "packets encapsulated, packetBytes"
vector 105 Network.bunker2router.eth[0].queue incomingPacketLengths:vector ETV
attr interpolationmode none
attr recordingmode vector
attr source packetLength(packetPushStarted)
attr title "incoming packet lengths"
attr unit b
vector 106 Network.bunker2router.eth[0].queue incomingDataRate:vector ETV
attr interpolationmode linear
attr recordingmode vector
attr source throughput(packetPushStarted)
attr title "incoming datarate"
attr unit bps
vector 107 Network.bunker2router.eth[0].queue queueingTime:vector ETV
attr interpolationmode none
attr recordingmode vector
attr source queueingTime(packetPulled)
attr title "queueing times"
attr unit s
vector 108 Network.bunker2router.eth[0].queue outgoingPacketLengths:vector ETV
attr interpolationmode none
attr recordingmode vector
attr source packetLength(packetPulled)
attr title "outgoing packet lengths"
attr unit b
vector 109 Network.bunker2router.eth[0].queue outgoingDataRate:vector ETV
attr interpolationmode linear
attr recordingmode vector
attr source throughput(packetPulled)
attr title "outgoing datarate"
attr unit bps
vector 110 Network.bunker2router.eth[0].mac packetReceivedFromUpper:vector(packetBytes) ETV
attr interpolationmode none
attr recordingmode vector(packetBytes)
attr source packetReceivedFromUpper
attr title "packet bytes from higher layer, packetBytes"
vector 111 Network.bunker2router.eth[0].queue queueLength:vector ETV
attr autoWarmupFilter false
attr interpolationmode sample-hold
attr recordingmode vector
attr source "warmup(atomic(constant0(packetPushEnded) + count(packetPushStarted) - count(packetPulled) - count(packetRemoved) - count(packetDropped)))"
attr title "queue length"
attr unit pk
vector 112 Network.bunker2router.eth[0].queue queueBitLength:vector ETV
attr autoWarmupFilter false
attr interpolationmode sample-hold
attr recordingmode vector
attr source "warmup(atomic(constant0(packetPushEnded) + sum(packetLength(packetPushStarted)) - sum(packetLength(packetPulled)) - sum(packetLength(packetRemoved)) - sum(packetLength(packetDropped))))"
attr title "queue bit length"
attr unit b
vector 113 Network.bunker2router.eth[0].mac txPk:vector(packetBytes) ETV
attr interpolationmode none
attr recordingmode vector(packetBytes)
attr source packetSentToLower
attr title "packets transmitted, packetBytes"
vector 114 Network.mainrouter.eth[1].mac rxPkOk:vector(packetBytes) ETV
attr interpolationmode none
attr recordingmode vector(packetBytes)
attr source rxPkOk
attr title "packets received OK, packetBytes"
vector 115 Network.mainrouter.eth[1].mac passedUpPk:vector(packetBytes) ETV
attr interpolationmode none
attr recordingmode vector(packetBytes)
attr source packetSentToUpper
attr title "packets passed to higher layer, packetBytes"
vector 116 Network.bunker2host[2].udp packetSent:vector(packetBytes) ETV
attr interpolationmode none
attr recordingmode vector(packetBytes)
attr source packetSent
attr title "packets sent, packetBytes"
vector 117 Network.bunker2host[3].udp packetSent:vector(packetBytes) ETV
attr interpolationmode none
attr recordingmode vector(packetBytes)
attr source packetSent
attr title "packets sent, packetBytes"
vector 118 Network.bunker3host[1].udp packetSent:vector(packetBytes) ETV
attr interpolationmode none
attr recordingmode vector(packetBytes)
attr source packetSent
attr title "packets sent, packetBytes"
vector 119 Network.bunker2host[2].ethernet encapPk:vector(packetBytes) ETV
attr interpolationmode none
attr recordingmode vector(packetBytes)
attr source encapPk
attr title "packets encapsulated, packetBytes"
vector 120 Network.bunker2host[3].ethernet encapPk:vector(packetBytes) ETV
attr interpolationmode none
attr recordingmode vector(packetBytes)
attr source encapPk
attr title "packets encapsulated, packetBytes"
vector 121 Network.bunker3host[1].ethernet encapPk:vector(packetBytes) ETV
attr interpolationmode none
attr recordingmode vector(packetBytes)
attr source encapPk
attr title "packets encapsulated, packetBytes"
vector 122 Network.bunker2host[2].eth[0].queue incomingPacketLengths:vector ETV
attr interpolationmode none
attr recordingmode vector
attr source packetLength(packetPushStarted)
attr title "incoming packet lengths"
attr unit b
vector 123 Network.bunker2host[2].eth[0].queue incomingDataRate:vector ETV
attr interpolationmode linear
attr recordingmode vector
attr source throughput(packetPushStarted)
attr title "incoming datarate"
attr unit bps
vector 124 Network.bunker2host[2].eth[0].queue queueingTime:vector ETV
attr interpolationmode none
attr recordingmode vector
attr source queueingTime(packetPulled)
attr title "queueing times"
attr unit s
vector 125 Network.bunker2host[2].eth[0].queue outgoingPacketLengths:vector ETV
attr interpolationmode none
attr recordingmode vector
attr source packetLength(packetPulled)
attr title "outgoing packet lengths"
attr unit b
vector 126 Network.bunker2host[2].eth[0].queue outgoingDataRate:vector ETV
attr interpolationmode linear
attr recordingmode vector
attr source throughput(packetPulled)
attr title "outgoing datarate"
attr unit bps
vector 127 Network.bunker2host[2].eth[0].mac packetReceivedFromUpper:vector(packetBytes) ETV
attr interpolationmode none
attr recordingmode vector(packetBytes)
attr source packetReceivedFromUpper
attr title "packet bytes from higher layer, packetBytes"
vector 128 Network.bunker2host[2].eth[0].queue queueLength:vector ETV
attr autoWarmupFilter false
attr interpolationmode sample-hold
attr recordingmode vector
attr source "warmup(atomic(constant0(packetPushEnded) + count(packetPushStarted) - count(packetPulled) - count(packetRemoved) - count(packetDropped)))"
attr title "queue length"
attr unit pk
vector 129 Network.bunker2host[2].eth[0].queue queueBitLength:vector ETV
attr autoWarmupFilter false
attr interpolationmode sample-hold
attr recordingmode vector
attr source "warmup(atomic(constant0(packetPushEnded) + sum(packetLength(packetPushStarted)) - sum(packetLength(packetPulled)) - sum(packetLength(packetRemoved)) - sum(packetLength(packetDropped))))"
attr title "queue bit length"
attr unit b
vector 130 Network.bunker2host[3].eth[0].queue incomingPacketLengths:vector ETV
attr interpolationmode none
attr recordingmode vector
attr source packetLength(packetPushStarted)
attr title "incoming packet lengths"
attr unit b
vector 131 Network.bunker2host[3].eth[0].queue incomingDataRate:vector ETV
attr interpolationmode linear
attr recordingmode vector
attr source throughput(packetPushStarted)
attr title "incoming datarate"
attr unit bps
vector 132 Network.bunker2host[3].eth[0].queue queueingTime:vector ETV
attr interpolationmode none
attr recordingmode vector
attr source queueingTime(packetPulled)
attr title "queueing times"
attr unit s
vector 133 Network.bunker2host[3].eth[0].queue outgoingPacketLengths:vector ETV
attr interpolationmode none
attr recordingmode vector
attr source packetLength(packetPulled)
attr title "outgoing packet lengths"
attr unit b
vector 134 Network.bunker2host[3].eth[0].queue outgoingDataRate:vector ETV
attr interpolationmode linear
attr recordingmode vector
attr source throughput(packetPulled)
attr title "outgoing datarate"
attr unit bps
vector 135 Network.bunker2host[3].eth[0].mac packetReceivedFromUpper:vector(packetBytes) ETV
attr interpolationmode none
attr recordingmode vector(packetBytes)
attr source packetReceivedFromUpper
attr title "packet bytes from higher layer, packetBytes"
vector 136 Network.bunker2host[3].eth[0].queue queueLength:vector ETV
attr autoWarmupFilter false
attr interpolationmode sample-hold
attr recordingmode vector
attr source "warmup(atomic(constant0(packetPushEnded) + count(packetPushStarted) - count(packetPulled) - count(packetRemoved) - count(packetDropped)))"
attr title "queue length"
attr unit pk
vector 137 Network.bunker2host[3].eth[0].queue queueBitLength:vector ETV
attr autoWarmupFilter false
attr interpolationmode sample-hold
attr recordingmode vector
attr source "warmup(atomic(constant0(packetPushEnded) + sum(packetLength(packetPushStarted)) - sum(packetLength(packetPulled)) - sum(packetLength(packetRemoved)) - sum(packetLength(packetDropped))))"
attr title "queue bit length"
attr unit b
vector 138 Network.bunker3host[1].eth[0].queue incomingPacketLengths:vector ETV
attr interpolationmode none
attr recordingmode vector
attr source packetLength(packetPushStarted)
attr title "incoming packet lengths"
attr unit b
vector 139 Network.bunker3host[1].eth[0].queue incomingDataRate:vector ETV
attr interpolationmode linear
attr recordingmode vector
attr source throughput(packetPushStarted)
attr title "incoming datarate"
attr unit bps
vector 140 Network.bunker3host[1].eth[0].queue queueingTime:vector ETV
attr interpolationmode none
attr recordingmode vector
attr source queueingTime(packetPulled)
attr title "queueing times"
attr unit s
vector 141 Network.bunker3host[1].eth[0].queue outgoingPacketLengths:vector ETV
attr interpolationmode none
attr recordingmode vector
attr source packetLength(packetPulled)
attr title "outgoing packet lengths"
attr unit b
vector 142 Network.bunker3host[1].eth[0].queue outgoingDataRate:vector ETV
attr interpolationmode linear
attr recordingmode vector
attr source throughput(packetPulled)
attr title "outgoing datarate"
attr unit bps
vector 143 Network.bunker3host[1].eth[0].mac packetReceivedFromUpper:vector(packetBytes) ETV
attr interpolationmode none
attr recordingmode vector(packetBytes)
attr source packetReceivedFromUpper
attr title "packet bytes from higher layer, packetBytes"
vector 144 Network.bunker3host[1].eth[0].queue queueLength:vector ETV
attr autoWarmupFilter false
attr interpolationmode sample-hold
attr recordingmode vector
attr source "warmup(atomic(constant0(packetPushEnded) + count(packetPushStarted) - count(packetPulled) - count(packetRemoved) - count(packetDropped)))"
attr title "queue length"
attr unit pk
vector 145 Network.bunker3host[1].eth[0].queue queueBitLength:vector ETV
attr autoWarmupFilter false
attr interpolationmode sample-hold
attr recordingmode vector
attr source "warmup(atomic(constant0(packetPushEnded) + sum(packetLength(packetPushStarted)) - sum(packetLength(packetPulled)) - sum(packetLength(packetRemoved)) - sum(packetLength(packetDropped))))"
attr title "queue bit length"
attr unit b
vector 146 Network.bunker2host[2].eth[0].mac txPk:vector(packetBytes) ETV
attr interpolationmode none
attr recordingmode vector(packetBytes)
attr source packetSentToLower
attr title "packets transmitted, packetBytes"
vector 147 Network.bunker2host[3].eth[0].mac txPk:vector(packetBytes) ETV
attr interpolationmode none
attr recordingmode vector(packetBytes)
attr source packetSentToLower
attr title "packets transmitted, packetBytes"
vector 148 Network.bunker3host[1].eth[0].mac txPk:vector(packetBytes) ETV
attr interpolationmode none
attr recordingmode vector(packetBytes)
attr source packetSentToLower
attr title "packets transmitted, packetBytes"
vector 149 Network.bunker2router.eth[3].mac rxPkOk:vector(packetBytes) ETV
attr interpolationmode none
attr recordingmode vector(packetBytes)
attr source rxPkOk
attr title "packets received OK, packetBytes"
vector 150 Network.bunker2router.eth[3].mac passedUpPk:vector(packetBytes) ETV
attr interpolationmode none
attr recordingmode vector(packetBytes)
attr source packetSentToUpper
attr title "packets passed to higher layer, packetBytes"
vector 151 Network.bunker2router.eth[4].mac rxPkOk:vector(packetBytes) ETV
attr interpolationmode none
attr recordingmode vector(packetBytes)
attr source rxPkOk
attr title "packets received OK, packetBytes"
vector 152 Network.bunker2router.eth[4].mac passedUpPk:vector(packetBytes) ETV
attr interpolationmode none
attr recordingmode vector(packetBytes)
attr source packetSentToUpper
attr title "packets passed to higher layer, packetBytes"
vector 153 Network.bunker3router.eth[2].mac rxPkOk:vector(packetBytes) ETV
attr interpolationmode none
attr recordingmode vector(packetBytes)
attr source rxPkOk
attr title "packets received OK, packetBytes"
vector 154 Network.bunker3router.eth[2].mac passedUpPk:vector(packetBytes) ETV
attr interpolationmode none
attr recordingmode vector(packetBytes)
attr source packetSentToUpper
attr title "packets passed to higher layer, packetBytes"
vector 155 Network.server.app[0] successfulLookup:vector ETV
attr interpolationmode linear
attr recordingmode vector
attr source successfulLookup
attr title "Successful Lookup Count"
vector 156 Network.server.udp packetSent:vector(packetBytes) ETV
attr interpolationmode none
attr recordingmode vector(packetBytes)
attr source packetSent
attr title "packets sent, packetBytes"
vector 157 Network.server.ethernet encapPk:vector(packetBytes) ETV
attr interpolationmode none
attr recordingmode vector(packetBytes)
attr source encapPk
attr title "packets encapsulated, packetBytes"
vector 158 Network.server.eth[0].queue incomingPacketLengths:vector ETV
attr interpolationmode none
attr recordingmode vector
attr source packetLength(packetPushStarted)
attr title "incoming packet lengths"
attr unit b
vector 159 Network.server.eth[0].queue incomingDataRate:vector ETV
attr interpolationmode linear
attr recordingmode vector
attr source throughput(packetPushStarted)
attr title "incoming datarate"
attr unit bps
vector 160 Network.server.eth[0].queue queueingTime:vector ETV
attr interpolationmode none
attr recordingmode vector
attr source queueingTime(packetPulled)
attr title "queueing times"
attr unit s
vector 161 Network.server.eth[0].queue outgoingPacketLengths:vector ETV
attr interpolationmode none
attr recordingmode vector
attr source packetLength(packetPulled)
attr title "outgoing packet lengths"
attr unit b
vector 162 Network.server.eth[0].queue outgoingDataRate:vector ETV
attr interpolationmode linear
attr recordingmode vector
attr source throughput(packetPulled)
attr title "outgoing datarate"
attr unit bps
vector 163 Network.server.eth[0].mac packetReceivedFromUpper:vector(packetBytes) ETV
attr interpolationmode none
attr recordingmode vector(packetBytes)
attr source packetReceivedFromUpper
attr title "packet bytes from higher layer, packetBytes"
vector 164 Network.server.eth[0].queue queueLength:vector ETV
attr autoWarmupFilter false
attr interpolationmode sample-hold
attr recordingmode vector
attr source "warmup(atomic(constant0(packetPushEnded) + count(packetPushStarted) - count(packetPulled) - count(packetRemoved) - count(packetDropped)))"
attr title "queue length"
attr unit pk
vector 165 Network.server.eth[0].queue queueBitLength:vector ETV
attr autoWarmupFilter false
attr interpolationmode sample-hold
attr recordingmode vector
attr source "warmup(atomic(constant0(packetPushEnded) + sum(packetLength(packetPushStarted)) - sum(packetLength(packetPulled)) - sum(packetLength(packetRemoved)) - sum(packetLength(packetDropped))))"
attr title "queue bit length"
attr unit b
vector 166 Network.server.eth[0].mac txPk:vector(packetBytes) ETV
attr interpolationmode none
attr recordingmode vector(packetBytes)
attr source packetSentToLower
attr title "packets transmitted, packetBytes"
vector 167 Network.server.app[0] unsuccessfulLookup:vector ETV
attr interpolationmode linear
attr recordingmode vector
attr source unsuccessfulLookup
attr title "Unsuccessful Lookup Count"
vector 168 Network.mainrouter.eth[3].mac rxPkOk:vector(packetBytes) ETV
attr interpolationmode none
attr recordingmode vector(packetBytes)
attr source rxPkOk
attr title "packets received OK, packetBytes"
vector 169 Network.mainrouter.eth[3].mac passedUpPk:vector(packetBytes) ETV
attr interpolationmode none
attr recordingmode vector(packetBytes)
attr source packetSentToUpper
attr title "packets passed to higher layer, packetBytes"
vector 170 Network.mainrouter.eth[1].queue incomingPacketLengths:vector ETV
attr interpolationmode none
attr recordingmode vector
attr source packetLength(packetPushStarted)
attr title "incoming packet lengths"
attr unit b
vector 171 Network.mainrouter.eth[1].queue incomingDataRate:vector ETV
attr interpolationmode linear
attr recordingmode vector
attr source throughput(packetPushStarted)
attr title "incoming datarate"
attr unit bps
vector 172 Network.mainrouter.eth[1].queue queueingTime:vector ETV
attr interpolationmode none
attr recordingmode vector
attr source queueingTime(packetPulled)
attr title "queueing times"
attr unit s
vector 173 Network.mainrouter.eth[1].queue outgoingPacketLengths:vector ETV
attr interpolationmode none
attr recordingmode vector
attr source packetLength(packetPulled)
attr title "outgoing packet lengths"
attr unit b
vector 174 Network.mainrouter.eth[1].queue outgoingDataRate:vector ETV
attr interpolationmode linear
attr recordingmode vector
attr source throughput(packetPulled)
attr title "outgoing datarate"
attr unit bps
vector 175 Network.mainrouter.eth[1].mac packetReceivedFromUpper:vector(packetBytes) ETV
attr interpolationmode none
attr recordingmode vector(packetBytes)
attr source packetReceivedFromUpper
attr title "packet bytes from higher layer, packetBytes"
vector 176 Network.mainrouter.eth[1].queue queueLength:vector ETV
attr autoWarmupFilter false
attr interpolationmode sample-hold
attr recordingmode vector
attr source "warmup(atomic(constant0(packetPushEnded) + count(packetPushStarted) - count(packetPulled) - count(packetRemoved) - count(packetDropped)))"
attr title "queue length"
attr unit pk
vector 177 Network.mainrouter.eth[1].queue queueBitLength:vector ETV
attr autoWarmupFilter false
attr interpolationmode sample-hold
attr recordingmode vector
attr source "warmup(atomic(constant0(packetPushEnded) + sum(packetLength(packetPushStarted)) - sum(packetLength(packetPulled)) - sum(packetLength(packetRemoved)) - sum(packetLength(packetDropped))))"
attr title "queue bit length"
attr unit b
vector 178 Network.mainrouter.eth[1].mac txPk:vector(packetBytes) ETV
attr interpolationmode none
attr recordingmode vector(packetBytes)
attr source packetSentToLower
attr title "packets transmitted, packetBytes"
vector 179 Network.mainrouter.eth[2].queue incomingPacketLengths:vector ETV
attr interpolationmode none
attr recordingmode vector
attr source packetLength(packetPushStarted)
attr title "incoming packet lengths"
attr unit b
vector 180 Network.mainrouter.eth[2].queue incomingDataRate:vector ETV
attr interpolationmode linear
attr recordingmode vector
attr source throughput(packetPushStarted)
attr title "incoming datarate"
attr unit bps
vector 181 Network.mainrouter.eth[2].queue queueingTime:vector ETV
attr interpolationmode none
attr recordingmode vector
attr source queueingTime(packetPulled)
attr title "queueing times"
attr unit s
vector 182 Network.mainrouter.eth[2].queue outgoingPacketLengths:vector ETV
attr interpolationmode none
attr recordingmode vector
attr source packetLength(packetPulled)
attr title "outgoing packet lengths"
attr unit b
vector 183 Network.mainrouter.eth[2].queue outgoingDataRate:vector ETV
attr interpolationmode linear
attr recordingmode vector
attr source throughput(packetPulled)
attr title "outgoing datarate"
attr unit bps
vector 184 Network.mainrouter.eth[2].mac packetReceivedFromUpper:vector(packetBytes) ETV
attr interpolationmode none
attr recordingmode vector(packetBytes)
attr source packetReceivedFromUpper
attr title "packet bytes from higher layer, packetBytes"
vector 185 Network.mainrouter.eth[2].queue queueLength:vector ETV
attr autoWarmupFilter false
attr interpolationmode sample-hold
attr recordingmode vector
attr source "warmup(atomic(constant0(packetPushEnded) + count(packetPushStarted) - count(packetPulled) - count(packetRemoved) - count(packetDropped)))"
attr title "queue length"
attr unit pk
vector 186 Network.mainrouter.eth[2].queue queueBitLength:vector ETV
attr autoWarmupFilter false
attr interpolationmode sample-hold
attr recordingmode vector
attr source "warmup(atomic(constant0(packetPushEnded) + sum(packetLength(packetPushStarted)) - sum(packetLength(packetPulled)) - sum(packetLength(packetRemoved)) - sum(packetLength(packetDropped))))"
attr title "queue bit length"
attr unit b
vector 187 Network.bunker2router.eth[0].mac rxPkOk:vector(packetBytes) ETV
attr interpolationmode none
attr recordingmode vector(packetBytes)
attr source rxPkOk
attr title "packets received OK, packetBytes"
vector 188 Network.bunker2router.eth[0].mac passedUpPk:vector(packetBytes) ETV
attr interpolationmode none
attr recordingmode vector(packetBytes)
attr source packetSentToUpper
attr title "packets passed to higher layer, packetBytes"
vector 189 Network.bunker2router.eth[3].queue incomingPacketLengths:vector ETV
attr interpolationmode none
attr recordingmode vector
attr source packetLength(packetPushStarted)
attr title "incoming packet lengths"
attr unit b
vector 190 Network.bunker2router.eth[3].queue incomingDataRate:vector ETV
attr interpolationmode linear
attr recordingmode vector
attr source throughput(packetPushStarted)
attr title "incoming datarate"
attr unit bps
vector 191 Network.bunker2router.eth[3].queue queueingTime:vector ETV
attr interpolationmode none
attr recordingmode vector
attr source queueingTime(packetPulled)
attr title "queueing times"
attr unit s
vector 192 Network.bunker2router.eth[3].queue outgoingPacketLengths:vector ETV
attr interpolationmode none
attr recordingmode vector
attr source packetLength(packetPulled)
attr title "outgoing packet lengths"
attr unit b
vector 193 Network.bunker2router.eth[3].queue outgoingDataRate:vector ETV
attr interpolationmode linear
attr recordingmode vector
attr source throughput(packetPulled)
attr title "outgoing datarate"
attr unit bps
vector 194 Network.bunker2router.eth[3].mac packetReceivedFromUpper:vector(packetBytes) ETV
attr interpolationmode none
attr recordingmode vector(packetBytes)
attr source packetReceivedFromUpper
attr title "packet bytes from higher layer, packetBytes"
vector 195 Network.bunker2router.eth[3].queue queueLength:vector ETV
attr autoWarmupFilter false
attr interpolationmode sample-hold
attr recordingmode vector
attr source "warmup(atomic(constant0(packetPushEnded) + count(packetPushStarted) - count(packetPulled) - count(packetRemoved) - count(packetDropped)))"
attr title "queue length"
attr unit pk
vector 196 Network.bunker2router.eth[3].queue queueBitLength:vector ETV
attr autoWarmupFilter false
attr interpolationmode sample-hold
attr recordingmode vector
attr source "warmup(atomic(constant0(packetPushEnded) + sum(packetLength(packetPushStarted)) - sum(packetLength(packetPulled)) - sum(packetLength(packetRemoved)) - sum(packetLength(packetDropped))))"
attr title "queue bit length"
attr unit b
vector 197 Network.mainrouter.eth[2].mac txPk:vector(packetBytes) ETV
attr interpolationmode none
attr recordingmode vector(packetBytes)
attr source packetSentToLower
attr title "packets transmitted, packetBytes"
vector 198 Network.bunker2router.eth[3].mac txPk:vector(packetBytes) ETV
attr interpolationmode none
attr recordingmode vector(packetBytes)
attr source packetSentToLower
attr title "packets transmitted, packetBytes"
vector 199 Network.bunker3router.eth[0].mac rxPkOk:vector(packetBytes) ETV
attr interpolationmode none
attr recordingmode vector(packetBytes)
attr source rxPkOk
attr title "packets received OK, packetBytes"
vector 200 Network.bunker3router.eth[0].mac passedUpPk:vector(packetBytes) ETV
attr interpolationmode none
attr recordingmode vector(packetBytes)
attr source packetSentToUpper
attr title "packets passed to higher layer, packetBytes"
vector 201 Network.bunker3router.eth[2].queue incomingPacketLengths:vector ETV
attr interpolationmode none
attr recordingmode vector
attr source packetLength(packetPushStarted)
attr title "incoming packet lengths"
attr unit b
vector 202 Network.bunker3router.eth[2].queue incomingDataRate:vector ETV
attr interpolationmode linear
attr recordingmode vector
attr source throughput(packetPushStarted)
attr title "incoming datarate"
attr unit bps
vector 203 Network.bunker3router.eth[2].queue queueingTime:vector ETV
attr interpolationmode none
attr recordingmode vector
attr source queueingTime(packetPulled)
attr title "queueing times"
attr unit s
vector 204 Network.bunker3router.eth[2].queue outgoingPacketLengths:vector ETV
attr interpolationmode none
attr recordingmode vector
attr source packetLength(packetPulled)
attr title "outgoing packet lengths"
attr unit b
vector 205 Network.bunker3router.eth[2].queue outgoingDataRate:vector ETV
attr interpolationmode linear
attr recordingmode vector
attr source throughput(packetPulled)
attr title "outgoing datarate"
attr unit bps
vector 206 Network.bunker3router.eth[2].mac packetReceivedFromUpper:vector(packetBytes) ETV
attr interpolationmode none
attr recordingmode vector(packetBytes)
attr source packetReceivedFromUpper
attr title "packet bytes from higher layer, packetBytes"
vector 207 Network.bunker3router.eth[2].queue queueLength:vector ETV
attr autoWarmupFilter false
attr interpolationmode sample-hold
attr recordingmode vector
attr source "warmup(atomic(constant0(packetPushEnded) + count(packetPushStarted) - count(packetPulled) - count(packetRemoved) - count(packetDropped)))"
attr title "queue length"
attr unit pk
vector 208 Network.bunker3router.eth[2].queue queueBitLength:vector ETV
attr autoWarmupFilter false
attr interpolationmode sample-hold
attr recordingmode vector
attr source "warmup(atomic(constant0(packetPushEnded) + sum(packetLength(packetPushStarted)) - sum(packetLength(packetPulled)) - sum(packetLength(packetRemoved)) - sum(packetLength(packetDropped))))"
attr title "queue bit length"
attr unit b
vector 209 Network.bunker2host[2].eth[0].mac rxPkOk:vector(packetBytes) ETV
attr interpolationmode none
attr recordingmode vector(packetBytes)
attr source rxPkOk
attr title "packets received OK, packetBytes"
vector 210 Network.bunker2host[2].eth[0].mac passedUpPk:vector(packetBytes) ETV
attr interpolationmode none
attr recordingmode vector(packetBytes)
attr source packetSentToUpper
attr title "packets passed to higher layer, packetBytes"
vector 211 Network.bunker2host[2].ethernet decapPk:vector(packetBytes) ETV
attr interpolationmode none
attr recordingmode vector(packetBytes)
attr source decapPk
attr title "packets decapsulated, packetBytes"
vector 212 Network.bunker2host[2].udp packetReceived:vector(packetBytes) ETV
attr interpolationmode none
attr recordingmode vector(packetBytes)
attr source packetReceived
attr title "packets received, packetBytes"
vector 213 Network.bunker2host[2].app[1] chunkLength:vector ETV
attr interpolationmode none
attr recordingmode vector
attr source chunkLength
attr title "Chunk Length"
vector 214 Network.bunker3router.eth[2].mac txPk:vector(packetBytes) ETV
attr interpolationmode none
attr recordingmode vector(packetBytes)
attr source packetSentToLower
attr title "packets transmitted, packetBytes"
vector 215 Network.bunker2router.eth[4].queue incomingPacketLengths:vector ETV
attr interpolationmode none
attr recordingmode vector
attr source packetLength(packetPushStarted)
attr title "incoming packet lengths"
attr unit b
vector 216 Network.bunker2router.eth[4].queue incomingDataRate:vector ETV
attr interpolationmode linear
attr recordingmode vector
attr source throughput(packetPushStarted)
attr title "incoming datarate"
attr unit bps
vector 217 Network.bunker2router.eth[4].queue queueingTime:vector ETV
attr interpolationmode none
attr recordingmode vector
attr source queueingTime(packetPulled)
attr title "queueing times"
attr unit s
vector 218 Network.bunker2router.eth[4].queue outgoingPacketLengths:vector ETV
attr interpolationmode none
attr recordingmode vector
attr source packetLength(packetPulled)
attr title "outgoing packet lengths"
attr unit b
vector 219 Network.bunker2router.eth[4].queue outgoingDataRate:vector ETV
attr interpolationmode linear
attr recordingmode vector
attr source throughput(packetPulled)
attr title "outgoing datarate"
attr unit bps
vector 220 Network.bunker2router.eth[4].mac packetReceivedFromUpper:vector(packetBytes) ETV
attr interpolationmode none
attr recordingmode vector(packetBytes)
attr source packetReceivedFromUpper
attr title "packet bytes from higher layer, packetBytes"
vector 221 Network.bunker2router.eth[4].queue queueLength:vector ETV
attr autoWarmupFilter false
attr interpolationmode sample-hold
attr recordingmode vector
attr source "warmup(atomic(constant0(packetPushEnded) + count(packetPushStarted) - count(packetPulled) - count(packetRemoved) - count(packetDropped)))"
attr title "queue length"
attr unit pk
vector 222 Network.bunker2router.eth[4].queue queueBitLength:vector ETV
attr autoWarmupFilter false
attr interpolationmode sample-hold
attr recordingmode vector
attr source "warmup(atomic(constant0(packetPushEnded) + sum(packetLength(packetPushStarted)) - sum(packetLength(packetPulled)) - sum(packetLength(packetRemoved)) - sum(packetLength(packetDropped))))"
attr title "queue bit length"
attr unit b
vector 223 Network.bunker3host[1].eth[0].mac rxPkOk:vector(packetBytes) ETV
attr interpolationmode none
attr recordingmode vector(packetBytes)
attr source rxPkOk
attr title "packets received OK, packetBytes"
vector 224 Network.bunker3host[1].eth[0].mac passedUpPk:vector(packetBytes) ETV
attr interpolationmode none
attr recordingmode vector(packetBytes)
attr source packetSentToUpper
attr title "packets passed to higher layer, packetBytes"
vector 225 Network.bunker3host[1].ethernet decapPk:vector(packetBytes) ETV
attr interpolationmode none
attr recordingmode vector(packetBytes)
attr source decapPk
attr title "packets decapsulated, packetBytes"
vector 226 Network.bunker3host[1].udp packetReceived:vector(packetBytes) ETV
attr interpolationmode none
attr recordingmode vector(packetBytes)
attr source packetReceived
attr title "packets received, packetBytes"
vector 227 Network.bunker2router.eth[4].mac txPk:vector(packetBytes) ETV
attr interpolationmode none
attr recordingmode vector(packetBytes)
attr source packetSentToLower
attr title "packets transmitted, packetBytes"
vector 228 Network.bunker2host[3].eth[0].mac rxPkOk:vector(packetBytes) ETV
attr interpolationmode none
attr recordingmode vector(packetBytes)
attr source rxPkOk
attr title "packets received OK, packetBytes"
vector 229 Network.bunker2host[3].eth[0].mac passedUpPk:vector(packetBytes) ETV
attr interpolationmode none
attr recordingmode vector(packetBytes)
attr source packetSentToUpper
attr title "packets passed to higher layer, packetBytes"
vector 230 Network.bunker2host[3].ethernet decapPk:vector(packetBytes) ETV
attr interpolationmode none
attr recordingmode vector(packetBytes)
attr source decapPk
attr title "packets decapsulated, packetBytes"
vector 231 Network.bunker2host[3].udp packetReceived:vector(packetBytes) ETV
attr interpolationmode none
attr recordingmode vector(packetBytes)
attr source packetReceived
attr title "packets received, packetBytes"
vector 232 Network.bunker2router.eth[2].queue incomingPacketLengths:vector ETV
attr interpolationmode none
attr recordingmode vector
attr source packetLength(packetPushStarted)
attr title "incoming packet lengths"
attr unit b
vector 233 Network.bunker2router.eth[2].queue incomingDataRate:vector ETV
attr interpolationmode linear
attr recordingmode vector
attr source throughput(packetPushStarted)
attr title "incoming datarate"
attr unit bps
vector 234 Network.bunker2router.eth[2].queue queueingTime:vector ETV
attr interpolationmode none
attr recordingmode vector
attr source queueingTime(packetPulled)
attr title "queueing times"
attr unit s
vector 235 Network.bunker2router.eth[2].queue outgoingPacketLengths:vector ETV
attr interpolationmode none
attr recordingmode vector
attr source packetLength(packetPulled)
attr title "outgoing packet lengths"
attr unit b
vector 236 Network.bunker2router.eth[2].queue outgoingDataRate:vector ETV
attr interpolationmode linear
attr recordingmode vector
attr source throughput(packetPulled)
attr title "outgoing datarate"
attr unit bps
vector 237 Network.bunker2router.eth[2].mac packetReceivedFromUpper:vector(packetBytes) ETV
attr interpolationmode none
attr recordingmode vector(packetBytes)
attr source packetReceivedFromUpper
attr title "packet bytes from higher layer, packetBytes"
vector 238 Network.bunker2router.eth[2].queue queueLength:vector ETV
attr autoWarmupFilter false
attr interpolationmode sample-hold
attr recordingmode vector
attr source "warmup(atomic(constant0(packetPushEnded) + count(packetPushStarted) - count(packetPulled) - count(packetRemoved) - count(packetDropped)))"
attr title "queue length"
attr unit pk
vector 239 Network.bunker2router.eth[2].queue queueBitLength:vector ETV
attr autoWarmupFilter false
attr interpolationmode sample-hold
attr recordingmode vector
attr source "warmup(atomic(constant0(packetPushEnded) + sum(packetLength(packetPushStarted)) - sum(packetLength(packetPulled)) - sum(packetLength(packetRemoved)) - sum(packetLength(packetDropped))))"
attr title "queue bit length"
attr unit b
vector 240 Network.bunker2router.eth[2].mac txPk:vector(packetBytes) ETV
attr interpolationmode none
attr recordingmode vector(packetBytes)
attr source packetSentToLower
attr title "packets transmitted, packetBytes"
vector 241 Network.bunker2host[1].eth[0].mac rxPkOk:vector(packetBytes) ETV
attr interpolationmode none
attr recordingmode vector(packetBytes)
attr source rxPkOk
attr title "packets received OK, packetBytes"
vector 242 Network.bunker2host[1].eth[0].mac passedUpPk:vector(packetBytes) ETV
attr interpolationmode none
attr recordingmode vector(packetBytes)
attr source packetSentToUpper
attr title "packets passed to higher layer, packetBytes"
vector 243 Network.bunker2host[1].ethernet decapPk:vector(packetBytes) ETV
attr interpolationmode none
attr recordingmode vector(packetBytes)
attr source decapPk
attr title "packets decapsulated, packetBytes"
vector 244 Network.bunker2host[1].udp packetReceived:vector(packetBytes) ETV
attr interpolationmode none
attr recordingmode vector(packetBytes)
attr source packetReceived
attr title "packets received, packetBytes"
vector 245 Network.bunker1host[1].udp packetSent:vector(packetBytes) ETV
attr interpolationmode none
attr recordingmode vector(packetBytes)
attr source packetSent
attr title "packets sent, packetBytes"
vector 246 Network.bunker1host[2].udp packetSent:vector(packetBytes) ETV
attr interpolationmode none
attr recordingmode vector(packetBytes)
attr source packetSent
attr title "packets sent, packetBytes"
vector 247 Network.bunker1host[1].ethernet encapPk:vector(packetBytes) ETV
attr interpolationmode none
attr recordingmode vector(packetBytes)
attr source encapPk
attr title "packets encapsulated, packetBytes"
vector 248 Network.bunker1host[2].ethernet encapPk:vector(packetBytes) ETV
attr interpolationmode none
attr recordingmode vector(packetBytes)
attr source encapPk
attr title "packets encapsulated, packetBytes"
vector 249 Network.bunker1host[1].eth[0].queue incomingPacketLengths:vector ETV
attr interpolationmode none
attr recordingmode vector
attr source packetLength(packetPushStarted)
attr title "incoming packet lengths"
attr unit b
vector 250 Network.bunker1host[1].eth[0].queue incomingDataRate:vector ETV
attr interpolationmode linear
attr recordingmode vector
attr source throughput(packetPushStarted)
attr title "incoming datarate"
attr unit bps
vector 251 Network.bunker1host[1].eth[0].queue queueingTime:vector ETV
attr interpolationmode none
attr recordingmode vector
attr source queueingTime(packetPulled)
attr title "queueing times"
attr unit s
vector 252 Network.bunker1host[1].eth[0].queue outgoingPacketLengths:vector ETV
attr interpolationmode none
attr recordingmode vector
attr source packetLength(packetPulled)
attr title "outgoing packet lengths"
attr unit b
vector 253 Network.bunker1host[1].eth[0].queue outgoingDataRate:vector ETV
attr interpolationmode linear
attr recordingmode vector
attr source throughput(packetPulled)
attr title "outgoing datarate"
attr unit bps
vector 254 Network.bunker1host[1].eth[0].mac packetReceivedFromUpper:vector(packetBytes) ETV
attr interpolationmode none
attr recordingmode vector(packetBytes)
attr source packetReceivedFromUpper
attr title "packet bytes from higher layer, packetBytes"
vector 255 Network.bunker1host[1].eth[0].queue queueLength:vector ETV
attr autoWarmupFilter false
attr interpolationmode sample-hold
attr recordingmode vector
attr source "warmup(atomic(constant0(packetPushEnded) + count(packetPushStarted) - count(packetPulled) - count(packetRemoved) - count(packetDropped)))"
attr title "queue length"
attr unit pk
vector 256 Network.bunker1host[1].eth[0].queue queueBitLength:vector ETV
attr autoWarmupFilter false
attr interpolationmode sample-hold
attr recordingmode vector
attr source "warmup(atomic(constant0(packetPushEnded) + sum(packetLength(packetPushStarted)) - sum(packetLength(packetPulled)) - sum(packetLength(packetRemoved)) - sum(packetLength(packetDropped))))"
attr title "queue bit length"
attr unit b
vector 257 Network.bunker1host[2].eth[0].queue incomingPacketLengths:vector ETV
attr interpolationmode none
attr recordingmode vector
attr source packetLength(packetPushStarted)
attr title "incoming packet lengths"
attr unit b
vector 258 Network.bunker1host[2].eth[0].queue incomingDataRate:vector ETV
attr interpolationmode linear
attr recordingmode vector
attr source throughput(packetPushStarted)
attr title "incoming datarate"
attr unit bps
vector 259 Network.bunker1host[2].eth[0].queue queueingTime:vector ETV
attr interpolationmode none
attr recordingmode vector
attr source queueingTime(packetPulled)
attr title "queueing times"
attr unit s
vector 260 Network.bunker1host[2].eth[0].queue outgoingPacketLengths:vector ETV
attr interpolationmode none
attr recordingmode vector
attr source packetLength(packetPulled)
attr title "outgoing packet lengths"
attr unit b
vector 261 Network.bunker1host[2].eth[0].queue outgoingDataRate:vector ETV
attr interpolationmode linear
attr recordingmode vector
attr source throughput(packetPulled)
attr title "outgoing datarate"
attr unit bps
vector 262 Network.bunker1host[2].eth[0].mac packetReceivedFromUpper:vector(packetBytes) ETV
attr interpolationmode none
attr recordingmode vector(packetBytes)
attr source packetReceivedFromUpper
attr title "packet bytes from higher layer, packetBytes"
vector 263 Network.bunker1host[2].eth[0].queue queueLength:vector ETV
attr autoWarmupFilter false
attr interpolationmode sample-hold
attr recordingmode vector
attr source "warmup(atomic(constant0(packetPushEnded) + count(packetPushStarted) - count(packetPulled) - count(packetRemoved) - count(packetDropped)))"
attr title "queue length"
attr unit pk
vector 264 Network.bunker1host[2].eth[0].queue queueBitLength:vector ETV
attr autoWarmupFilter false
attr interpolationmode sample-hold
attr recordingmode vector
attr source "warmup(atomic(constant0(packetPushEnded) + sum(packetLength(packetPushStarted)) - sum(packetLength(packetPulled)) - sum(packetLength(packetRemoved)) - sum(packetLength(packetDropped))))"
attr title "queue bit length"
attr unit b
vector 265 Network.bunker1host[1].eth[0].mac txPk:vector(packetBytes) ETV
attr interpolationmode none
attr recordingmode vector(packetBytes)
attr source packetSentToLower
attr title "packets transmitted, packetBytes"
vector 266 Network.bunker1host[2].eth[0].mac txPk:vector(packetBytes) ETV
attr interpolationmode none
attr recordingmode vector(packetBytes)
attr source packetSentToLower
attr title "packets transmitted, packetBytes"
vector 267 Network.bunker1router.eth[2].mac rxPkOk:vector(packetBytes) ETV
attr interpolationmode none
attr recordingmode vector(packetBytes)
attr source rxPkOk
attr title "packets received OK, packetBytes"
vector 268 Network.bunker1router.eth[2].mac passedUpPk:vector(packetBytes) ETV
attr interpolationmode none
attr recordingmode vector(packetBytes)
attr source packetSentToUpper
attr title "packets passed to higher layer, packetBytes"
vector 269 Network.bunker1router.eth[3].mac rxPkOk:vector(packetBytes) ETV
attr interpolationmode none
attr recordingmode vector(packetBytes)
attr source rxPkOk
attr title "packets received OK, packetBytes"
vector 270 Network.bunker1router.eth[3].mac passedUpPk:vector(packetBytes) ETV
attr interpolationmode none
attr recordingmode vector(packetBytes)
attr source packetSentToUpper
attr title "packets passed to higher layer, packetBytes"
vector 271 Network.bunker1router.ethernet decapPk:vector(packetBytes) ETV
attr interpolationmode none
attr recordingmode vector(packetBytes)
attr source decapPk
attr title "packets decapsulated, packetBytes"
vector 272 Network.bunker1router.ethernet encapPk:vector(packetBytes) ETV
attr interpolationmode none
attr recordingmode vector(packetBytes)
attr source encapPk
attr title "packets encapsulated, packetBytes"
vector 273 Network.bunker1router.eth[0].queue incomingPacketLengths:vector ETV
attr interpolationmode none
attr recordingmode vector
attr source packetLength(packetPushStarted)
attr title "incoming packet lengths"
attr unit b
vector 274 Network.bunker1router.eth[0].queue incomingDataRate:vector ETV
attr interpolationmode linear
attr recordingmode vector
attr source throughput(packetPushStarted)
attr title "incoming datarate"
attr unit bps
vector 275 Network.bunker1router.eth[0].queue queueingTime:vector ETV
attr interpolationmode none
attr recordingmode vector
attr source queueingTime(packetPulled)
attr title "queueing times"
attr unit s
vector 276 Network.bunker1router.eth[0].queue outgoingPacketLengths:vector ETV
attr interpolationmode none
attr recordingmode vector
attr source packetLength(packetPulled)
attr title "outgoing packet lengths"
attr unit b
vector 277 Network.bunker1router.eth[0].queue outgoingDataRate:vector ETV
attr interpolationmode linear
attr recordingmode vector
attr source throughput(packetPulled)
attr title "outgoing datarate"
attr unit bps
vector 278 Network.bunker1router.eth[0].mac packetReceivedFromUpper:vector(packetBytes) ETV
attr interpolationmode none
attr recordingmode vector(packetBytes)
attr source packetReceivedFromUpper
attr title "packet bytes from higher layer, packetBytes"
vector 279 Network.bunker1router.eth[0].queue queueLength:vector ETV
attr autoWarmupFilter false
attr interpolationmode sample-hold
attr recordingmode vector
attr source "warmup(atomic(constant0(packetPushEnded) + count(packetPushStarted) - count(packetPulled) - count(packetRemoved) - count(packetDropped)))"
attr title "queue length"
attr unit pk
vector 280 Network.bunker1router.eth[0].queue queueBitLength:vector ETV
attr autoWarmupFilter false
attr interpolationmode sample-hold
attr recordingmode vector
attr source "warmup(atomic(constant0(packetPushEnded) + sum(packetLength(packetPushStarted)) - sum(packetLength(packetPulled)) - sum(packetLength(packetRemoved)) - sum(packetLength(packetDropped))))"
attr title "queue bit length"
attr unit b
vector 281 Network.bunker1router.eth[0].mac txPk:vector(packetBytes) ETV
attr interpolationmode none
attr recordingmode vector(packetBytes)
attr source packetSentToLower
attr title "packets transmitted, packetBytes"
vector 282 Network.mainrouter.eth[0].mac rxPkOk:vector(packetBytes) ETV
attr interpolationmode none
attr recordingmode vector(packetBytes)
attr source rxPkOk
attr title "packets received OK, packetBytes"
vector 283 Network.mainrouter.eth[0].mac passedUpPk:vector(packetBytes) ETV
attr interpolationmode none
attr recordingmode vector(packetBytes)
attr source packetSentToUpper
attr title "packets passed to higher layer, packetBytes"
vector 284 Network.mainrouter.eth[0].queue incomingPacketLengths:vector ETV
attr interpolationmode none
attr recordingmode vector
attr source packetLength(packetPushStarted)
attr title "incoming packet lengths"
attr unit b
vector 285 Network.mainrouter.eth[0].queue incomingDataRate:vector ETV
attr interpolationmode linear
attr recordingmode vector
attr source throughput(packetPushStarted)
attr title "incoming datarate"
attr unit bps
vector 286 Network.mainrouter.eth[0].queue queueingTime:vector ETV
attr interpolationmode none
attr recordingmode vector
attr source queueingTime(packetPulled)
attr title "queueing times"
attr unit s
vector 287 Network.mainrouter.eth[0].queue outgoingPacketLengths:vector ETV
attr interpolationmode none
attr recordingmode vector
attr source packetLength(packetPulled)
attr title "outgoing packet lengths"
attr unit b
vector 288 Network.mainrouter.eth[0].queue outgoingDataRate:vector ETV
attr interpolationmode linear
attr recordingmode vector
attr source throughput(packetPulled)
attr title "outgoing datarate"
attr unit bps
vector 289 Network.mainrouter.eth[0].mac packetReceivedFromUpper:vector(packetBytes) ETV
attr interpolationmode none
attr recordingmode vector(packetBytes)
attr source packetReceivedFromUpper
attr title "packet bytes from higher layer, packetBytes"
vector 290 Network.mainrouter.eth[0].queue queueLength:vector ETV
attr autoWarmupFilter false
attr interpolationmode sample-hold
attr recordingmode vector
attr source "warmup(atomic(constant0(packetPushEnded) + count(packetPushStarted) - count(packetPulled) - count(packetRemoved) - count(packetDropped)))"
attr title "queue length"
attr unit pk
vector 291 Network.mainrouter.eth[0].queue queueBitLength:vector ETV
attr autoWarmupFilter false
attr interpolationmode sample-hold
attr recordingmode vector
attr source "warmup(atomic(constant0(packetPushEnded) + sum(packetLength(packetPushStarted)) - sum(packetLength(packetPulled)) - sum(packetLength(packetRemoved)) - sum(packetLength(packetDropped))))"
attr title "queue bit length"
attr unit b
vector 292 Network.mainrouter.eth[0].mac txPk:vector(packetBytes) ETV
attr interpolationmode none
attr recordingmode vector(packetBytes)
attr source packetSentToLower
attr title "packets transmitted, packetBytes"
vector 293 Network.bunker1router.eth[0].mac rxPkOk:vector(packetBytes) ETV
attr interpolationmode none
attr recordingmode vector(packetBytes)
attr source rxPkOk
attr title "packets received OK, packetBytes"
vector 294 Network.bunker1router.eth[0].mac passedUpPk:vector(packetBytes) ETV
attr interpolationmode none
attr recordingmode vector(packetBytes)
attr source packetSentToUpper
attr title "packets passed to higher layer, packetBytes"
vector 295 Network.bunker1router.eth[2].queue incomingPacketLengths:vector ETV
attr interpolationmode none
attr recordingmode vector
attr source packetLength(packetPushStarted)
attr title "incoming packet lengths"
attr unit b
vector 296 Network.bunker1router.eth[2].queue incomingDataRate:vector ETV
attr interpolationmode linear
attr recordingmode vector
attr source throughput(packetPushStarted)
attr title "incoming datarate"
attr unit bps
vector 297 Network.bunker1router.eth[2].queue queueingTime:vector ETV
attr interpolationmode none
attr recordingmode vector
attr source queueingTime(packetPulled)
attr title "queueing times"
attr unit s
vector 298 Network.bunker1router.eth[2].queue outgoingPacketLengths:vector ETV
attr interpolationmode none
attr recordingmode vector
attr source packetLength(packetPulled)
attr title "outgoing packet lengths"
attr unit b
vector 299 Network.bunker1router.eth[2].queue outgoingDataRate:vector ETV
attr interpolationmode linear
attr recordingmode vector
attr source throughput(packetPulled)
attr title "outgoing datarate"
attr unit bps
vector 300 Network.bunker1router.eth[2].mac packetReceivedFromUpper:vector(packetBytes) ETV
attr interpolationmode none
attr recordingmode vector(packetBytes)
attr source packetReceivedFromUpper
attr title "packet bytes from higher layer, packetBytes"
vector 301 Network.bunker1router.eth[2].queue queueLength:vector ETV
attr autoWarmupFilter false
attr interpolationmode sample-hold
attr recordingmode vector
attr source "warmup(atomic(constant0(packetPushEnded) + count(packetPushStarted) - count(packetPulled) - count(packetRemoved) - count(packetDropped)))"
attr title "queue length"
attr unit pk
vector 302 Network.bunker1router.eth[2].queue queueBitLength:vector ETV
attr autoWarmupFilter false
attr interpolationmode sample-hold
attr recordingmode vector
attr source "warmup(atomic(constant0(packetPushEnded) + sum(packetLength(packetPushStarted)) - sum(packetLength(packetPulled)) - sum(packetLength(packetRemoved)) - sum(packetLength(packetDropped))))"
attr title "queue bit length"
attr unit b
vector 303 Network.bunker1router.eth[2].mac txPk:vector(packetBytes) ETV
attr interpolationmode none
attr recordingmode vector(packetBytes)
attr source packetSentToLower
attr title "packets transmitted, packetBytes"
vector 304 Network.bunker1host[1].eth[0].mac rxPkOk:vector(packetBytes) ETV
attr interpolationmode none
attr recordingmode vector(packetBytes)
attr source rxPkOk
attr title "packets received OK, packetBytes"
vector 305 Network.bunker1host[1].eth[0].mac passedUpPk:vector(packetBytes) ETV
attr interpolationmode none
attr recordingmode vector(packetBytes)
attr source packetSentToUpper
attr title "packets passed to higher layer, packetBytes"
vector 306 Network.bunker1host[1].ethernet decapPk:vector(packetBytes) ETV
attr interpolationmode none
attr recordingmode vector(packetBytes)
attr source decapPk
attr title "packets decapsulated, packetBytes"
vector 307 Network.bunker1host[1].udp packetReceived:vector(packetBytes) ETV
attr interpolationmode none
attr recordingmode vector(packetBytes)
attr source packetReceived
attr title "packets received, packetBytes"
vector 308 Network.bunker3router.eth[3].queue incomingPacketLengths:vector ETV
attr interpolationmode none
attr recordingmode vector
attr source packetLength(packetPushStarted)
attr title "incoming packet lengths"
attr unit b
vector 309 Network.bunker3router.eth[3].queue incomingDataRate:vector ETV
attr interpolationmode linear
attr recordingmode vector
attr source throughput(packetPushStarted)
attr title "incoming datarate"
attr unit bps
vector 310 Network.bunker3router.eth[3].queue queueingTime:vector ETV
attr interpolationmode none
attr recordingmode vector
attr source queueingTime(packetPulled)
attr title "queueing times"
attr unit s
vector 311 Network.bunker3router.eth[3].queue outgoingPacketLengths:vector ETV
attr interpolationmode none
attr recordingmode vector
attr source packetLength(packetPulled)
attr title "outgoing packet lengths"
attr unit b
vector 312 Network.bunker3router.eth[3].queue outgoingDataRate:vector ETV
attr interpolationmode linear
attr recordingmode vector
attr source throughput(packetPulled)
attr title "outgoing datarate"
attr unit bps
vector 313 Network.bunker3router.eth[3].mac packetReceivedFromUpper:vector(packetBytes) ETV
attr interpolationmode none
attr recordingmode vector(packetBytes)
attr source packetReceivedFromUpper
attr title "packet bytes from higher layer, packetBytes"
vector 314 Network.bunker3router.eth[3].queue queueLength:vector ETV
attr autoWarmupFilter false
attr interpolationmode sample-hold
attr recordingmode vector
attr source "warmup(atomic(constant0(packetPushEnded) + count(packetPushStarted) - count(packetPulled) - count(packetRemoved) - count(packetDropped)))"
attr title "queue length"
attr unit pk
vector 315 Network.bunker3router.eth[3].queue queueBitLength:vector ETV
attr autoWarmupFilter false
attr interpolationmode sample-hold
attr recordingmode vector
attr source "warmup(atomic(constant0(packetPushEnded) + sum(packetLength(packetPushStarted)) - sum(packetLength(packetPulled)) - sum(packetLength(packetRemoved)) - sum(packetLength(packetDropped))))"
attr title "queue bit length"
attr unit b
vector 316 Network.bunker3router.eth[3].mac txPk:vector(packetBytes) ETV
attr interpolationmode none
attr recordingmode vector(packetBytes)
attr source packetSentToLower
attr title "packets transmitted, packetBytes"
vector 317 Network.bunker1router.eth[3].queue incomingPacketLengths:vector ETV
attr interpolationmode none
attr recordingmode vector
attr source packetLength(packetPushStarted)
attr title "incoming packet lengths"
attr unit b
vector 318 Network.bunker1router.eth[3].queue incomingDataRate:vector ETV
attr interpolationmode linear
attr recordingmode vector
attr source throughput(packetPushStarted)
attr title "incoming datarate"
attr unit bps
vector 319 Network.bunker1router.eth[3].queue queueingTime:vector ETV
attr interpolationmode none
attr recordingmode vector
attr source queueingTime(packetPulled)
attr title "queueing times"
attr unit s
vector 320 Network.bunker1router.eth[3].queue outgoingPacketLengths:vector ETV
attr interpolationmode none
attr recordingmode vector
attr source packetLength(packetPulled)
attr title "outgoing packet lengths"
attr unit b
vector 321 Network.bunker1router.eth[3].queue outgoingDataRate:vector ETV
attr interpolationmode linear
attr recordingmode vector
attr source throughput(packetPulled)
attr title "outgoing datarate"
attr unit bps
[...]
285	2373	34	0
285	2373	34.1	0
285	2373	34.2	0
285	2373	34.3	0
285	2373	34.4	0
285	2373	34.5	0
285	2373	34.6	0
285	2373	34.7	0
285	2373	34.8	0
285	2373	34.9	0
285	2373	35	0
285	2373	35.000000359948	0
288	2373	30.1	5280
288	2373	30.2	0
288	2373	30.3	0
288	2373	30.4	0
288	2373	30.5	0
288	2373	30.6	0
288	2373	30.7	0
288	2373	30.8	0
288	2373	30.9	0
288	2373	31	0
288	2373	31.1	0
288	2373	31.2	0
288	2373	31.3	0
288	2373	31.4	0
288	2373	31.5	0
288	2373	31.6	0
288	2373	31.7	0
288	2373	31.8	0
288	2373	31.9	0
288	2373	32	0
288	2373	32.1	0
288	2373	32.2	0
288	2373	32.3	0
288	2373	32.4	0
288	2373	32.5	0
288	2373	32.6	0
288	2373	32.7	0
288	2373	32.8	0
288	2373	32.9	0
288	2373	33	0
288	2373	33.1	0
288	2373	33.2	0
288	2373	33.3	0
288	2373	33.4	0
288	2373	33.5	0
288	2373	33.6	0
288	2373	33.7	0
288	2373	33.8	0
288	2373	33.9	0
288	2373	34	0
288	2373	34.1	0
288	2373	34.2	0
288	2373	34.3	0
288	2373	34.4	0
288	2373	34.5	0
288	2373	34.6	0
288	2373	34.7	0
288	2373	34.8	0
288	2373	34.9	0
288	2373	35	0
288	2373	35.000000359948	0
296	2373	30.1	5280
296	2373	30.2	0
296	2373	30.3	0
296	2373	30.4	0
296	2373	30.5	0
296	2373	30.6	0
296	2373	30.7	0
296	2373	30.8	0
296	2373	30.9	0
296	2373	31	0
296	2373	31.1	0
296	2373	31.2	0
296	2373	31.3	0
296	2373	31.4	0
296	2373	31.5	0
296	2373	31.6	0
296	2373	31.7	0
296	2373	31.8	0
296	2373	31.9	0
296	2373	32	0
296	2373	32.1	0
296	2373	32.2	0
296	2373	32.3	0
296	2373	32.4	0
296	2373	32.5	0
296	2373	32.6	0
296	2373	32.7	0
296	2373	32.8	0
296	2373	32.9	0
296	2373	33	0
296	2373	33.1	0
296	2373	33.2	0
296	2373	33.3	0
296	2373	33.4	0
296	2373	33.5	0
296	2373	33.6	0
296	2373	33.7	0
296	2373	33.8	0
296	2373	33.9	0
296	2373	34	0
296	2373	34.1	0
296	2373	34.2	0
296	2373	34.3	0
296	2373	34.4	0
296	2373	34.5	0
296	2373	34.6	0
296	2373	34.7	0
296	2373	34.8	0
296	2373	34.9	0
296	2373	35	0
296	2373	35.000000359948	0
299	2373	30.1	5280
299	2373	30.2	0
299	2373	30.3	0
299	2373	30.4	0
299	2373	30.5	0
299	2373	30.6	0
299	2373	30.7	0
299	2373	30.8	0
299	2373	30.9	0
299	2373	31	0
299	2373	31.1	0
299	2373	31.2	0
299	2373	31.3	0
299	2373	31.4	0
299	2373	31.5	0
299	2373	31.6	0
299	2373	31.7	0
299	2373	31.8	0
299	2373	31.9	0
299	2373	32	0
299	2373	32.1	0
299	2373	32.2	0
299	2373	32.3	0
299	2373	32.4	0
299	2373	32.5	0
299	2373	32.6	0
299	2373	32.7	0
299	2373	32.8	0
299	2373	32.9	0
299	2373	33	0
299	2373	33.1	0
299	2373	33.2	0
299	2373	33.3	0
299	2373	33.4	0
299	2373	33.5	0
299	2373	33.6	0
299	2373	33.7	0
299	2373	33.8	0
299	2373	33.9	0
299	2373	34	0
299	2373	34.1	0
299	2373	34.2	0
299	2373	34.3	0
299	2373	34.4	0
299	2373	34.5	0
299	2373	34.6	0
299	2373	34.7	0
299	2373	34.8	0
299	2373	34.9	0
299	2373	35	0
299	2373	35.000000359948	0
309	2373	31.1	14320
309	2373	31.2	0
309	2373	31.3	0
309	2373	31.4	0
309	2373	31.5	0
309	2373	31.6	0
309	2373	31.7	0
309	2373	31.8	0
309	2373	31.9	0
309	2373	32	0
309	2373	32.1	0
309	2373	32.2	0
309	2373	32.3	0
309	2373	32.4	0
309	2373	32.5	0
309	2373	32.6	0
309	2373	32.7	0
309	2373	32.8	0
309	2373	32.9	0
309	2373	33	0
309	2373	33.1	0
309	2373	33.2	0
309	2373	33.3	0
309	2373	33.4	0
309	2373	33.5	0
309	2373	33.6	0
309	2373	33.7	0
309	2373	33.8	0
309	2373	33.9	0
309	2373	34	0
309	2373	34.1	0
309	2373	34.2	0
309	2373	34.3	0
309	2373	34.4	0
309	2373	34.5	0
309	2373	34.6	0
309	2373	34.7	0
309	2373	34.8	0
309	2373	34.9	0
309	2373	35	0
309	2373	35.000000359948	0
312	2373	31.1	14320
312	2373	31.2	0
312	2373	31.3	0
312	2373	31.4	0
312	2373	31.5	0
312	2373	31.6	0
312	2373	31.7	0
312	2373	31.8	0
312	2373	31.9	0
312	2373	32	0
312	2373	32.1	0
312	2373	32.2	0
312	2373	32.3	0
312	2373	32.4	0
312	2373	32.5	0
312	2373	32.6	0
312	2373	32.7	0
312	2373	32.8	0
312	2373	32.9	0
312	2373	33	0
312	2373	33.1	0
312	2373	33.2	0
312	2373	33.3	0
312	2373	33.4	0
312	2373	33.5	0
312	2373	33.6	0
312	2373	33.7	0
312	2373	33.8	0
312	2373	33.9	0
312	2373	34	0
312	2373	34.1	0
312	2373	34.2	0
312	2373	34.3	0
312	2373	34.4	0
312	2373	34.5	0
312	2373	34.6	0
312	2373	34.7	0
312	2373	34.8	0
312	2373	34.9	0
312	2373	35	0
312	2373	35.000000359948	0
318	2373	29.1	5280
318	2373	29.2	0
318	2373	29.3	0
318	2373	29.4	0
318	2373	29.5	0
318	2373	29.6	0
318	2373	29.7	0
318	2373	29.8	0
318	2373	29.9	0
318	2373	30	0
318	2373	30.1	0
318	2373	30.2	0
318	2373	30.3	0
318	2373	30.4	0
318	2373	30.5	0
318	2373	30.6	0
318	2373	30.7	0
318	2373	30.8	0
318	2373	30.9	0
318	2373	31	0
318	2373	31.1	0
318	2373	31.2	0
318	2373	31.3	0
318	2373	31.4	0
318	2373	31.5	0
318	2373	31.6	0
318	2373	31.7	0
318	2373	31.8	0
318	2373	31.9	0
318	2373	32	0
318	2373	32.1	0
318	2373	32.2	0
318	2373	32.3	0
318	2373	32.4	0
318	2373	32.5	0
318	2373	32.6	0
318	2373	32.7	0
318	2373	32.8	0
318	2373	32.9	0
318	2373	33	0
318	2373	33.1	0
318	2373	33.2	0
318	2373	33.3	0
318	2373	33.4	0
318	2373	33.5	0
318	2373	33.6	0
318	2373	33.7	0
318	2373	33.8	0
318	2373	33.9	0
318	2373	34	0
318	2373	34.1	0
318	2373	34.2	0
318	2373	34.3	0
318	2373	34.4	0
318	2373	34.5	0
318	2373	34.6	0
318	2373	34.7	0
318	2373	34.8	0
318	2373	34.9	0
318	2373	35	0
318	2373	35.000000359948	0
321	2373	29.1	5280
321	2373	29.2	0
321	2373	29.3	0
321	2373	29.4	0
321	2373	29.5	0
321	2373	29.6	0
321	2373	29.7	0
321	2373	29.8	0
321	2373	29.9	0
321	2373	30	0
321	2373	30.1	0
321	2373	30.2	0
321	2373	30.3	0
321	2373	30.4	0
321	2373	30.5	0
321	2373	30.6	0
321	2373	30.7	0
321	2373	30.8	0
321	2373	30.9	0
321	2373	31	0
321	2373	31.1	0
321	2373	31.2	0
321	2373	31.3	0
321	2373	31.4	0
321	2373	31.5	0
321	2373	31.6	0
321	2373	31.7	0
321	2373	31.8	0
321	2373	31.9	0
321	2373	32	0
321	2373	32.1	0
321	2373	32.2	0
321	2373	32.3	0
321	2373	32.4	0
321	2373	32.5	0
321	2373	32.6	0
321	2373	32.7	0
321	2373	32.8	0
321	2373	32.9	0
321	2373	33	0
321	2373	33.1	0
321	2373	33.2	0
321	2373	33.3	0
321	2373	33.4	0
321	2373	33.5	0
321	2373	33.6	0
321	2373	33.7	0
321	2373	33.8	0
321	2373	33.9	0
321	2373	34	0
321	2373	34.1	0
321	2373	34.2	0
321	2373	34.3	0
321	2373	34.4	0
321	2373	34.5	0
321	2373	34.6	0
321	2373	34.7	0
321	2373	34.8	0
321	2373	34.9	0
321	2373	35	0
321	2373	35.000000359948	0
337	2373	35.000000359948	1466878549.1238
340	2373	35.000000359948	1466878549.1238
348	2373	34.1	77360
348	2373	34.2	0
348	2373	34.3	0
348	2373	34.4	0
348	2373	34.5	0
348	2373	34.6	0
348	2373	34.7	0
348	2373	34.8	0
348	2373	34.9	0
348	2373	35	0
348	2373	35.000000359948	0
351	2373	34.1	77360
351	2373	34.2	0
351	2373	34.3	0
351	2373	34.4	0
351	2373	34.5	0
351	2373	34.6	0
351	2373	34.7	0
351	2373	34.8	0
351	2373	34.9	0
351	2373	35	0
351	2373	35.000000359948	0
363	2373	28.1	5280
363	2373	28.2	0
363	2373	28.3	0
363	2373	28.4	0
363	2373	28.5	0
363	2373	28.6	0
363	2373	28.7	0
363	2373	28.8	0
363	2373	28.9	0
363	2373	29	0
363	2373	29.1	0
363	2373	29.2	0
363	2373	29.3	0
363	2373	29.4	0
363	2373	29.5	0
363	2373	29.6	0
363	2373	29.7	0
363	2373	29.8	0
363	2373	29.9	0
363	2373	30	0
363	2373	30.1	0
363	2373	30.2	0
363	2373	30.3	0
363	2373	30.4	0
363	2373	30.5	0
363	2373	30.6	0
363	2373	30.7	0
363	2373	30.8	0
363	2373	30.9	0
363	2373	31	0
363	2373	31.1	0
363	2373	31.2	0
363	2373	31.3	0
363	2373	31.4	0
363	2373	31.5	0
363	2373	31.6	0
363	2373	31.7	0
363	2373	31.8	0
363	2373	31.9	0
363	2373	32	0
363	2373	32.1	0
363	2373	32.2	0
363	2373	32.3	0
363	2373	32.4	0
363	2373	32.5	0
363	2373	32.6	0
363	2373	32.7	0
363	2373	32.8	0
363	2373	32.9	0
363	2373	33	0
363	2373	33.1	0
363	2373	33.2	0
363	2373	33.3	0
363	2373	33.4	0
363	2373	33.5	0
363	2373	33.6	0
363	2373	33.7	0
363	2373	33.8	0
363	2373	33.9	0
363	2373	34	0
363	2373	34.1	0
363	2373	34.2	0
363	2373	34.3	0
363	2373	34.4	0
363	2373	34.5	0
363	2373	34.6	0
363	2373	34.7	0
363	2373	34.8	0
363	2373	34.9	0
363	2373	35	0
363	2373	35.000000359948	0
366	2373	28.1	5280
366	2373	28.2	0
366	2373	28.3	0
366	2373	28.4	0
366	2373	28.5	0
366	2373	28.6	0
366	2373	28.7	0
366	2373	28.8	0
366	2373	28.9	0
366	2373	29	0
366	2373	29.1	0
366	2373	29.2	0
366	2373	29.3	0
366	2373	29.4	0
366	2373	29.5	0
366	2373	29.6	0
366	2373	29.7	0
366	2373	29.8	0
366	2373	29.9	0
366	2373	30	0
366	2373	30.1	0
366	2373	30.2	0
366	2373	30.3	0
366	2373	30.4	0
366	2373	30.5	0
366	2373	30.6	0
366	2373	30.7	0
366	2373	30.8	0
366	2373	30.9	0
366	2373	31	0
366	2373	31.1	0
366	2373	31.2	0
366	2373	31.3	0
366	2373	31.4	0
366	2373	31.5	0
366	2373	31.6	0
366	2373	31.7	0
366	2373	31.8	0
366	2373	31.9	0
366	2373	32	0
366	2373	32.1	0
366	2373	32.2	0
366	2373	32.3	0
366	2373	32.4	0
366	2373	32.5	0
366	2373	32.6	0
366	2373	32.7	0
366	2373	32.8	0
366	2373	32.9	0
366	2373	33	0
366	2373	33.1	0
366	2373	33.2	0
366	2373	33.3	0
366	2373	33.4	0
366	2373	33.5	0
366	2373	33.6	0
366	2373	33.7	0
366	2373	33.8	0
366	2373	33.9	0
366	2373	34	0
366	2373	34.1	0
366	2373	34.2	0
366	2373	34.3	0
366	2373	34.4	0
366	2373	34.5	0
366	2373	34.6	0
366	2373	34.7	0
366	2373	34.8	0
366	2373	34.9	0
366	2373	35	0
366	2373	35.000000359948	0
376	2373	31.1	14320
376	2373	31.2	0
376	2373	31.3	0
376	2373	31.4	0
376	2373	31.5	0
376	2373	31.6	0
376	2373	31.7	0
376	2373	31.8	0
376	2373	31.9	0
376	2373	32	0
376	2373	32.1	0
376	2373	32.2	0
376	2373	32.3	0
376	2373	32.4	0
376	2373	32.5	0
376	2373	32.6	0
376	2373	32.7	0
376	2373	32.8	0
376	2373	32.9	0
376	2373	33	0
376	2373	33.1	0
376	2373	33.2	0
376	2373	33.3	0
376	2373	33.4	0
376	2373	33.5	0
376	2373	33.6	0
376	2373	33.7	0
376	2373	33.8	0
376	2373	33.9	0
376	2373	34	0
376	2373	34.1	0
376	2373	34.2	0
376	2373	34.3	0
376	2373	34.4	0
376	2373	34.5	0
376	2373	34.6	0
376	2373	34.7	0
376	2373	34.8	0
376	2373	34.9	0
376	2373	35	0
376	2373	35.000000359948	0
379	2373	31.1	14320
379	2373	31.2	0
379	2373	31.3	0
379	2373	31.4	0
379	2373	31.5	0
379	2373	31.6	0
379	2373	31.7	0
379	2373	31.8	0
379	2373	31.9	0
379	2373	32	0
379	2373	32.1	0
379	2373	32.2	0
379	2373	32.3	0
379	2373	32.4	0
379	2373	32.5	0
379	2373	32.6	0
379	2373	32.7	0
379	2373	32.8	0
379	2373	32.9	0
379	2373	33	0
379	2373	33.1	0
379	2373	33.2	0
379	2373	33.3	0
379	2373	33.4	0
379	2373	33.5	0
379	2373	33.6	0
379	2373	33.7	0
379	2373	33.8	0
379	2373	33.9	0
379	2373	34	0
379	2373	34.1	0
379	2373	34.2	0
379	2373	34.3	0
379	2373	34.4	0
379	2373	34.5	0
379	2373	34.6	0
379	2373	34.7	0
379	2373	34.8	0
379	2373	34.9	0
379	2373	35	0
379	2373	35.000000359948	0
389	2373	18.1	55680
389	2373	18.2	0
389	2373	18.3	0
389	2373	18.4	0
389	2373	18.5	0
389	2373	18.6	0
389	2373	18.7	0
389	2373	18.8	0
389	2373	18.9	0
389	2373	19	0
389	2373	19.1	0
389	2373	19.2	0
389	2373	19.3	0
389	2373	19.4	0
389	2373	19.5	0
389	2373	19.6	0
389	2373	19.7	0
389	2373	19.8	0
389	2373	19.9	0
389	2373	20	0
389	2373	20.1	0
389	2373	20.2	0
389	2373	20.3	0
389	2373	20.4	0
389	2373	20.5	0
389	2373	20.6	0
389	2373	20.7	0
389	2373	20.8	0
389	2373	20.9	0
389	2373	21	0
389	2373	21.1	0
389	2373	21.2	0
389	2373	21.3	0
389	2373	21.4	0
389	2373	21.5	0
389	2373	21.6	0
389	2373	21.7	0
389	2373	21.8	0
389	2373	21.9	0
389	2373	22	0
389	2373	22.1	0
389	2373	22.2	0
389	2373	22.3	0
389	2373	22.4	0
389	2373	22.5	0
389	2373	22.6	0
389	2373	22.7	0
389	2373	22.8	0
389	2373	22.9	0
389	2373	23	0
389	2373	23.1	0
389	2373	23.2	0
389	2373	23.3	0
389	2373	23.4	0
389	2373	23.5	0
389	2373	23.6	0
389	2373	23.7	0
389	2373	23.8	0
389	2373	23.9	0
389	2373	24	0
389	2373	24.1	0
389	2373	24.2	0
389	2373	24.3	0
389	2373	24.4	0
389	2373	24.5	0
389	2373	24.6	0
389	2373	24.7	0
389	2373	24.8	0
389	2373	24.9	0
389	2373	25	0
389	2373	25.1	0
389	2373	25.2	0
389	2373	25.3	0
389	2373	25.4	0
389	2373	25.5	0
389	2373	25.6	0
389	2373	25.7	0
389	2373	25.8	0
389	2373	25.9	0
389	2373	26	0
389	2373	26.1	0
389	2373	26.2	0
389	2373	26.3	0
389	2373	26.4	0
389	2373	26.5	0
389	2373	26.6	0
389	2373	26.7	0
389	2373	26.8	0
389	2373	26.9	0
389	2373	27	0
389	2373	27.1	0
389	2373	27.2	0
389	2373	27.3	0
389	2373	27.4	0
389	2373	27.5	0
389	2373	27.6	0
389	2373	27.7	0
389	2373	27.8	0
389	2373	27.9	0
389	2373	28	0
389	2373	28.1	0
389	2373	28.2	0
389	2373	28.3	0
389	2373	28.4	0
389	2373	28.5	0
389	2373	28.6	0
389	2373	28.7	0
389	2373	28.8	0
389	2373	28.9	0
389	2373	29	0
389	2373	29.1	0
389	2373	29.2	0
389	2373	29.3	0
389	2373	29.4	0
389	2373	29.5	0
389	2373	29.6	0
389	2373	29.7	0
389	2373	29.8	0
389	2373	29.9	0
389	2373	30	0
389	2373	30.1	0
389	2373	30.2	0
389	2373	30.3	0
389	2373	30.4	0
389	2373	30.5	0
389	2373	30.6	0
389	2373	30.7	0
389	2373	30.8	0
389	2373	30.9	0
389	2373	31	0
389	2373	31.1	0
389	2373	31.2	0
389	2373	31.3	0
389	2373	31.4	0
389	2373	31.5	0
389	2373	31.6	0
389	2373	31.7	0
389	2373	31.8	0
389	2373	31.9	0
389	2373	32	0
389	2373	32.1	0
389	2373	32.2	0
389	2373	32.3	0
389	2373	32.4	0
389	2373	32.5	0
389	2373	32.6	0
389	2373	32.7	0
389	2373	32.8	0
389	2373	32.9	0
389	2373	33	0
389	2373	33.1	0
389	2373	33.2	0
389	2373	33.3	0
389	2373	33.4	0
389	2373	33.5	0
389	2373	33.6	0
389	2373	33.7	0
389	2373	33.8	0
389	2373	33.9	0
389	2373	34	0
389	2373	34.1	0
389	2373	34.2	0
389	2373	34.3	0
389	2373	34.4	0
389	2373	34.5	0
389	2373	34.6	0
389	2373	34.7	0
389	2373	34.8	0
389	2373	34.9	0
389	2373	35	0
389	2373	35.000000359948	0
392	2373	18.1	55680
392	2373	18.2	0
392	2373	18.3	0
392	2373	18.4	0
392	2373	18.5	0
392	2373	18.6	0
392	2373	18.7	0
392	2373	18.8	0
392	2373	18.9	0
392	2373	19	0
392	2373	19.1	0
392	2373	19.2	0
392	2373	19.3	0
392	2373	19.4	0
392	2373	19.5	0
392	2373	19.6	0
392	2373	19.7	0
392	2373	19.8	0
392	2373	19.9	0
392	2373	20	0
392	2373	20.1	0
392	2373	20.2	0
392	2373	20.3	0
392	2373	20.4	0
392	2373	20.5	0
392	2373	20.6	0
392	2373	20.7	0
392	2373	20.8	0
392	2373	20.9	0
392	2373	21	0
392	2373	21.1	0
392	2373	21.2	0
392	2373	21.3	0
392	2373	21.4	0
392	2373	21.5	0
392	2373	21.6	0
392	2373	21.7	0
392	2373	21.8	0
392	2373	21.9	0
392	2373	22	0
392	2373	22.1	0
392	2373	22.2	0
392	2373	22.3	0
392	2373	22.4	0
392	2373	22.5	0
392	2373	22.6	0
392	2373	22.7	0
392	2373	22.8	0
392	2373	22.9	0
392	2373	23	0
392	2373	23.1	0
392	2373	23.2	0
392	2373	23.3	0
392	2373	23.4	0
392	2373	23.5	0
392	2373	23.6	0
392	2373	23.7	0
392	2373	23.8	0
392	2373	23.9	0
392	2373	24	0
392	2373	24.1	0
392	2373	24.2	0
392	2373	24.3	0
392	2373	24.4	0
392	2373	24.5	0
392	2373	24.6	0
392	2373	24.7	0
392	2373	24.8	0
392	2373	24.9	0
392	2373	25	0
392	2373	25.1	0
392	2373	25.2	0
392	2373	25.3	0
392	2373	25.4	0
392	2373	25.5	0
392	2373	25.6	0
392	2373	25.7	0
392	2373	25.8	0
392	2373	25.9	0
392	2373	26	0
392	2373	26.1	0
392	2373	26.2	0
392	2373	26.3	0
392	2373	26.4	0
392	2373	26.5	0
392	2373	26.6	0
392	2373	26.7	0
392	2373	26.8	0
392	2373	26.9	0
392	2373	27	0
392	2373	27.1	0
392	2373	27.2	0
392	2373	27.3	0
392	2373	27.4	0
392	2373	27.5	0
392	2373	27.6	0
392	2373	27.7	0
392	2373	27.8	0
392	2373	27.9	0
392	2373	28	0
392	2373	28.1	0
392	2373	28.2	0
392	2373	28.3	0
392	2373	28.4	0
392	2373	28.5	0
392	2373	28.6	0
392	2373	28.7	0
392	2373	28.8	0
392	2373	28.9	0
392	2373	29	0
392	2373	29.1	0
392	2373	29.2	0
392	2373	29.3	0
392	2373	29.4	0
392	2373	29.5	0
392	2373	29.6	0
392	2373	29.7	0
392	2373	29.8	0
392	2373	29.9	0
392	2373	30	0
392	2373	30.1	0
392	2373	30.2	0
392	2373	30.3	0
392	2373	30.4	0
392	2373	30.5	0
392	2373	30.6	0
392	2373	30.7	0
392	2373	30.8	0
392	2373	30.9	0
392	2373	31	0
392	2373	31.1	0
392	2373	31.2	0
392	2373	31.3	0
392	2373	31.4	0
392	2373	31.5	0
392	2373	31.6	0
392	2373	31.7	0
392	2373	31.8	0
392	2373	31.9	0
392	2373	32	0
392	2373	32.1	0
392	2373	32.2	0
392	2373	32.3	0
392	2373	32.4	0
392	2373	32.5	0
392	2373	32.6	0
392	2373	32.7	0
392	2373	32.8	0
392	2373	32.9	0
392	2373	33	0
392	2373	33.1	0
392	2373	33.2	0
392	2373	33.3	0
392	2373	33.4	0
392	2373	33.5	0
392	2373	33.6	0
392	2373	33.7	0
392	2373	33.8	0
392	2373	33.9	0
392	2373	34	0
392	2373	34.1	0
392	2373	34.2	0
392	2373	34.3	0
392	2373	34.4	0
392	2373	34.5	0
392	2373	34.6	0
392	2373	34.7	0
392	2373	34.8	0
392	2373	34.9	0
392	2373	35	0
392	2373	35.000000359948	0
403	2373	29.1	54160
403	2373	29.2	0
403	2373	29.3	0
403	2373	29.4	0
403	2373	29.5	0
403	2373	29.6	0
403	2373	29.7	0
403	2373	29.8	0
403	2373	29.9	0
403	2373	30	0
403	2373	30.1	0
403	2373	30.2	0
403	2373	30.3	0
403	2373	30.4	0
403	2373	30.5	0
403	2373	30.6	0
403	2373	30.7	0
403	2373	30.8	0
403	2373	30.9	0
403	2373	31	0
403	2373	31.1	0
403	2373	31.2	0
403	2373	31.3	0
403	2373	31.4	0
403	2373	31.5	0
403	2373	31.6	0
403	2373	31.7	0
403	2373	31.8	0
403	2373	31.9	0
403	2373	32	0
403	2373	32.1	0
403	2373	32.2	0
403	2373	32.3	0
403	2373	32.4	0
403	2373	32.5	0
403	2373	32.6	0
403	2373	32.7	0
403	2373	32.8	0
403	2373	32.9	0
403	2373	33	0
403	2373	33.1	0
403	2373	33.2	0
403	2373	33.3	0
403	2373	33.4	0
403	2373	33.5	0
403	2373	33.6	0
403	2373	33.7	0
403	2373	33.8	0
403	2373	33.9	0
403	2373	34	0
403	2373	34.1	0
403	2373	34.2	0
403	2373	34.3	0
403	2373	34.4	0
403	2373	34.5	0
403	2373	34.6	0
403	2373	34.7	0
403	2373	34.8	0
403	2373	34.9	0
403	2373	35	0
403	2373	35.000000359948	0
406	2373	29.1	54160
406	2373	29.2	0
406	2373	29.3	0
406	2373	29.4	0
406	2373	29.5	0
406	2373	29.6	0
406	2373	29.7	0
406	2373	29.8	0
406	2373	29.9	0
406	2373	30	0
406	2373	30.1	0
406	2373	30.2	0
406	2373	30.3	0
406	2373	30.4	0
406	2373	30.5	0
406	2373	30.6	0
406	2373	30.7	0
406	2373	30.8	0
406	2373	30.9	0
406	2373	31	0
406	2373	31.1	0
406	2373	31.2	0
406	2373	31.3	0
406	2373	31.4	0
406	2373	31.5	0
406	2373	31.6	0
406	2373	31.7	0
406	2373	31.8	0
406	2373	31.9	0
406	2373	32	0
406	2373	32.1	0
406	2373	32.2	0
406	2373	32.3	0
406	2373	32.4	0
406	2373	32.5	0
406	2373	32.6	0
406	2373	32.7	0
406	2373	32.8	0
406	2373	32.9	0
406	2373	33	0
406	2373	33.1	0
406	2373	33.2	0
406	2373	33.3	0
406	2373	33.4	0
406	2373	33.5	0
406	2373	33.6	0
406	2373	33.7	0
406	2373	33.8	0
406	2373	33.9	0
406	2373	34	0
406	2373	34.1	0
406	2373	34.2	0
406	2373	34.3	0
406	2373	34.4	0
406	2373	34.5	0
406	2373	34.6	0
406	2373	34.7	0
406	2373	34.8	0
406	2373	34.9	0
406	2373	35	0
406	2373	35.000000359948	0
419	2373	27.1	105520
419	2373	27.2	0
419	2373	27.3	0
419	2373	27.4	0
419	2373	27.5	0
419	2373	27.6	0
419	2373	27.7	0
419	2373	27.8	0
419	2373	27.9	0
419	2373	28	0
419	2373	28.1	0
419	2373	28.2	0
419	2373	28.3	0
419	2373	28.4	0
419	2373	28.5	0
419	2373	28.6	0
419	2373	28.7	0
419	2373	28.8	0
419	2373	28.9	0
419	2373	29	0
419	2373	29.1	0
419	2373	29.2	0
419	2373	29.3	0
419	2373	29.4	0
419	2373	29.5	0
419	2373	29.6	0
419	2373	29.7	0
419	2373	29.8	0
419	2373	29.9	0
419	2373	30	0
419	2373	30.1	0
419	2373	30.2	0
419	2373	30.3	0
419	2373	30.4	0
419	2373	30.5	0
419	2373	30.6	0
419	2373	30.7	0
419	2373	30.8	0
419	2373	30.9	0
419	2373	31	0
419	2373	31.1	0
419	2373	31.2	0
419	2373	31.3	0
419	2373	31.4	0
419	2373	31.5	0
419	2373	31.6	0
419	2373	31.7	0
419	2373	31.8	0
419	2373	31.9	0
419	2373	32	0
419	2373	32.1	0
419	2373	32.2	0
419	2373	32.3	0
419	2373	32.4	0
419	2373	32.5	0
419	2373	32.6	0
419	2373	32.7	0
419	2373	32.8	0
419	2373	32.9	0
419	2373	33	0
419	2373	33.1	0
419	2373	33.2	0
419	2373	33.3	0
419	2373	33.4	0
419	2373	33.5	0
419	2373	33.6	0
419	2373	33.7	0
419	2373	33.8	0
419	2373	33.9	0
419	2373	34	0
419	2373	34.1	0
419	2373	34.2	0
419	2373	34.3	0
419	2373	34.4	0
419	2373	34.5	0
419	2373	34.6	0
419	2373	34.7	0
419	2373	34.8	0
419	2373	34.9	0
419	2373	35	0
419	2373	35.000000359948	0
422	2373	27.1	105520
422	2373	27.2	0
422	2373	27.3	0
422	2373	27.4	0
422	2373	27.5	0
422	2373	27.6	0
422	2373	27.7	0
422	2373	27.8	0
422	2373	27.9	0
422	2373	28	0
422	2373	28.1	0
422	2373	28.2	0
422	2373	28.3	0
422	2373	28.4	0
422	2373	28.5	0
422	2373	28.6	0
422	2373	28.7	0
422	2373	28.8	0
422	2373	28.9	0
422	2373	29	0
422	2373	29.1	0
422	2373	29.2	0
422	2373	29.3	0
422	2373	29.4	0
422	2373	29.5	0
422	2373	29.6	0
422	2373	29.7	0
422	2373	29.8	0
422	2373	29.9	0
422	2373	30	0
422	2373	30.1	0
422	2373	30.2	0
422	2373	30.3	0
422	2373	30.4	0
422	2373	30.5	0
422	2373	30.6	0
422	2373	30.7	0
422	2373	30.8	0
422	2373	30.9	0
422	2373	31	0
422	2373	31.1	0
422	2373	31.2	0
422	2373	31.3	0
422	2373	31.4	0
422	2373	31.5	0
422	2373	31.6	0
422	2373	31.7	0
422	2373	31.8	0
422	2373	31.9	0
422	2373	32	0
422	2373	32.1	0
422	2373	32.2	0
422	2373	32.3	0
422	2373	32.4	0
422	2373	32.5	0
422	2373	32.6	0
422	2373	32.7	0
422	2373	32.8	0
422	2373	32.9	0
422	2373	33	0
422	2373	33.1	0
422	2373	33.2	0
422	2373	33.3	0
422	2373	33.4	0
422	2373	33.5	0
422	2373	33.6	0
422	2373	33.7	0
422	2373	33.8	0
422	2373	33.9	0
422	2373	34	0
422	2373	34.1	0
422	2373	34.2	0
422	2373	34.3	0
422	2373	34.4	0
422	2373	34.5	0
422	2373	34.6	0
422	2373	34.7	0
422	2373	34.8	0
422	2373	34.9	0
422	2373	35	0
422	2373	35.000000359948	0

